<?xml version='1.0' encoding='UTF-8'?>
<configuration xmlns:xsi="http://www.w3.org/2001/XMLSchema-instance" xsi:noNamespaceSchemaLocation="http://sumo.dlr.de/xsd/sumoConfiguration.xsd">
  <input>
    <net-file value="test-single-lane-one-controller-200m1l.net.xml"/>
    <route-files value="test-single-lane-one-controller-200m1l.rou.xml"/>
    <additional-files value="test-single-lane-one-controller-200m1l.add.xml"/>
    <gui-settings-file value="test-single-lane-one-controller-200m1l.gui.cfg"/>
  </input>
  <time>
    <begin value="0"/>
    <end value="1000"/>
  </time>
</configuration>
