<?xml version='1.0' encoding='UTF-8'?>
<routes xmlns:xsi="http://www.w3.org/2001/XMLSchema-instance" xsi:noNamespaceSchemaLocation="http://sumo.dlr.de/xsd/routes_file.xsd">
  <vType id="cfm-fast" minGap="0"/>
  <vType id="cfm-slow" minGap="0"/>
  <vehicle color="1,0.0,0.0" depart="0" departPos="1" departSpeed="0" id="cfm-fast_0" route="routebottom" type="cfm-fast"/>
  <vehicle color="1,0.0,0.0" depart="0" departPos="16.833333333333336" departSpeed="0" id="cfm-fast_1" route="routebottom" type="cfm-fast"/>
  <vehicle color="1,0.0,0.0" depart="0" departPos="32.66666666666667" departSpeed="0" id="cfm-fast_2" route="routebottom" type="cfm-fast"/>
  <vehicle color="1,0.0,0.0" depart="0" departPos="48.50000000000001" departSpeed="0" id="cfm-fast_3" route="routebottom" type="cfm-fast"/>
  <vehicle color="1,0.0,0.0" depart="0" departPos="14.333333333333343" departSpeed="0" id="cfm-fast_4" route="routeright" type="cfm-fast"/>
  <vehicle color="1,0.0,0.0" depart="0" departPos="30.16666666666667" departSpeed="0" id="cfm-fast_5" route="routeright" type="cfm-fast"/>
  <vehicle color="1,0.0,0.0" depart="0" departPos="46.0" departSpeed="0" id="cfm-slow_0" route="routeright" type="cfm-slow"/>
  <vehicle color="1,0.0,0.0" depart="0" departPos="11.833333333333329" departSpeed="0" id="cfm-slow_1" route="routetop" type="cfm-slow"/>
  <vehicle color="1,0.0,0.0" depart="0" departPos="27.666666666666657" departSpeed="0" id="cfm-slow_2" route="routetop" type="cfm-slow"/>
  <vehicle color="1,0.0,0.0" depart="0" departPos="43.5" departSpeed="0" id="cfm-slow_3" route="routetop" type="cfm-slow"/>
  <vehicle color="1,0.0,0.0" depart="0" departPos="9.333333333333343" departSpeed="0" id="cfm-slow_4" route="routeleft" type="cfm-slow"/>
  <vehicle color="1,0.0,0.0" depart="0" departPos="25.166666666666686" departSpeed="0" id="cfm-slow_5" route="routeleft" type="cfm-slow"/>
</routes>
