<?xml version="1.0" encoding="UTF-8"?>

<!-- generated on Tue Feb 28 07:54:16 2017 by SUMO netconvert Version 0.29.0
<?xml version="1.0" encoding="UTF-8"?>

<configuration xmlns:xsi="http://www.w3.org/2001/XMLSchema-instance" xsi:noNamespaceSchemaLocation="http://sumo.dlr.de/xsd/netconvertConfiguration.xsd">

    <input>
        <node-files value="tests/debug/net/test-single-lane-one-controller-200m1l.nod.xml"/>
        <edge-files value="tests/debug/net/test-single-lane-one-controller-200m1l.edg.xml"/>
        <type-files value="tests/debug/net/test-single-lane-one-controller-200m1l.typ.xml"/>
    </input>

    <output>
        <output-file value="tests/debug/cfg/test-single-lane-one-controller-200m1l.net.xml"/>
    </output>

    <processing>
        <no-internal-links value="true"/>
        <no-turnarounds value="true"/>
    </processing>

</configuration>
-->

<net version="0.27" xmlns:xsi="http://www.w3.org/2001/XMLSchema-instance" xsi:noNamespaceSchemaLocation="http://sumo.dlr.de/xsd/net_file.xsd">

    <location netOffset="63.66,63.66" convBoundary="0.00,0.00,127.32,127.32" origBoundary="-63.66,-63.66,63.66,63.66" projParameter="!"/>

    <type id="edgeType" numLanes="1" speed="35.00"/>

    <edge id="bottom" from="bottom" to="right" priority="-1" type="edgeType" length="50.00" shape="63.66,0.00 66.22,0.05 68.78,0.20 71.33,0.46 73.87,0.82 76.39,1.28 78.90,1.85 81.37,2.51 83.82,3.27 86.23,4.14 88.61,5.09 90.95,6.14 93.25,7.29 95.49,8.53 97.69,9.85 99.82,11.27 101.90,12.77 103.92,14.35 105.88,16.01 107.76,17.75 109.57,19.56 111.31,21.44 112.97,23.40 114.55,25.42 116.05,27.50 117.47,29.63 118.79,31.83 120.03,34.07 121.18,36.37 122.23,38.71 123.18,41.09 124.05,43.50 124.81,45.95 125.47,48.42 126.04,50.93 126.50,53.45 126.86,55.99 127.12,58.54 127.27,61.10 127.32,63.66">
        <lane id="bottom_0" index="0" speed="35.00" length="50.00" shape="63.69,-1.65 66.29,-1.60 68.91,-1.44 71.53,-1.18 74.14,-0.81 76.72,-0.33 79.30,0.25 81.83,0.93 84.35,1.71 86.82,2.60 89.26,3.57 91.66,4.65 94.02,5.83 96.32,7.10 98.57,8.46 100.76,9.92 102.89,11.45 104.96,13.07 106.98,14.78 108.91,16.56 110.76,18.42 112.55,20.35 114.25,22.36 115.87,24.43 117.41,26.56 118.87,28.75 120.22,31.01 121.49,33.30 122.67,35.66 123.75,38.07 124.72,40.51 125.62,42.98 126.40,45.49 127.07,48.03 127.66,50.60 128.13,53.19 128.50,55.79 128.77,58.41 128.92,61.04 128.97,63.63"/>
    </edge>
    <edge id="left" from="left" to="bottom" priority="-1" type="edgeType" length="50.00" shape="0.00,63.66 0.05,61.10 0.20,58.54 0.46,55.99 0.82,53.45 1.28,50.93 1.85,48.42 2.51,45.95 3.27,43.50 4.14,41.09 5.09,38.71 6.14,36.37 7.29,34.07 8.53,31.83 9.85,29.63 11.27,27.50 12.77,25.42 14.35,23.40 16.01,21.44 17.75,19.56 19.56,17.75 21.44,16.01 23.40,14.35 25.42,12.77 27.50,11.27 29.63,9.85 31.83,8.53 34.07,7.29 36.37,6.14 38.71,5.09 41.09,4.14 43.50,3.27 45.95,2.51 48.42,1.85 50.93,1.28 53.45,0.82 55.99,0.46 58.54,0.20 61.10,0.05 63.66,0.00">
        <lane id="left_0" index="0" speed="35.00" length="50.00" shape="-1.65,63.63 -1.60,61.04 -1.44,58.41 -1.18,55.79 -0.81,53.19 -0.33,50.60 0.25,48.03 0.93,45.49 1.71,42.98 2.60,40.51 3.57,38.07 4.65,35.66 5.83,33.30 7.10,31.01 8.46,28.75 9.92,26.56 11.45,24.43 13.07,22.36 14.78,20.35 16.56,18.42 18.42,16.56 20.35,14.78 22.36,13.07 24.43,11.45 26.56,9.92 28.75,8.46 31.01,7.10 33.30,5.83 35.66,4.65 38.07,3.57 40.51,2.60 42.98,1.71 45.49,0.93 48.03,0.25 50.60,-0.33 53.19,-0.81 55.79,-1.18 58.41,-1.44 61.04,-1.60 63.63,-1.65"/>
    </edge>
    <edge id="right" from="right" to="top" priority="-1" type="edgeType" length="50.00" shape="127.32,63.66 127.27,66.22 127.12,68.78 126.86,71.33 126.50,73.87 126.04,76.39 125.47,78.90 124.81,81.37 124.05,83.82 123.18,86.23 122.23,88.61 121.18,90.95 120.03,93.25 118.79,95.49 117.47,97.69 116.05,99.82 114.55,101.90 112.97,103.92 111.31,105.88 109.57,107.76 107.76,109.57 105.88,111.31 103.92,112.97 101.90,114.55 99.82,116.05 97.69,117.47 95.49,118.79 93.25,120.03 90.95,121.18 88.61,122.23 86.23,123.18 83.82,124.05 81.37,124.81 78.90,125.47 76.39,126.04 73.87,126.50 71.33,126.86 68.78,127.12 66.22,127.27 63.66,127.32">
        <lane id="right_0" index="0" speed="35.00" length="50.00" shape="128.97,63.69 128.92,66.29 128.77,68.91 128.50,71.53 128.13,74.14 127.66,76.72 127.07,79.30 126.40,81.83 125.62,84.35 124.72,86.82 123.75,89.26 122.67,91.66 121.49,94.02 120.22,96.32 118.87,98.57 117.41,100.76 115.87,102.89 114.25,104.96 112.55,106.98 110.76,108.91 108.91,110.76 106.98,112.55 104.96,114.25 102.89,115.87 100.76,117.41 98.57,118.87 96.32,120.22 94.02,121.49 91.66,122.67 89.26,123.75 86.82,124.72 84.35,125.62 81.83,126.40 79.30,127.07 76.72,127.66 74.14,128.13 71.53,128.50 68.91,128.77 66.29,128.92 63.69,128.97"/>
    </edge>
    <edge id="top" from="top" to="left" priority="-1" type="edgeType" length="50.00" shape="63.66,127.32 61.10,127.27 58.54,127.12 55.99,126.86 53.45,126.50 50.93,126.04 48.42,125.47 45.95,124.81 43.50,124.05 41.09,123.18 38.71,122.23 36.37,121.18 34.07,120.03 31.83,118.79 29.63,117.47 27.50,116.05 25.42,114.55 23.40,112.97 21.44,111.31 19.56,109.57 17.75,107.76 16.01,105.88 14.35,103.92 12.77,101.90 11.27,99.82 9.85,97.69 8.53,95.49 7.29,93.25 6.14,90.95 5.09,88.61 4.14,86.23 3.27,83.82 2.51,81.37 1.85,78.90 1.28,76.39 0.82,73.87 0.46,71.33 0.20,68.78 0.05,66.22 0.00,63.66">
        <lane id="top_0" index="0" speed="35.00" length="50.00" shape="63.63,128.97 61.04,128.92 58.41,128.77 55.79,128.50 53.19,128.13 50.60,127.66 48.03,127.07 45.49,126.40 42.98,125.62 40.51,124.72 38.07,123.75 35.66,122.67 33.30,121.49 31.01,120.22 28.75,118.87 26.56,117.41 24.43,115.87 22.36,114.25 20.35,112.55 18.42,110.76 16.56,108.91 14.78,106.98 13.07,104.96 11.45,102.89 9.92,100.76 8.46,98.57 7.10,96.32 5.83,94.02 4.65,91.66 3.57,89.26 2.60,86.82 1.71,84.35 0.93,81.83 0.25,79.30 -0.33,76.72 -0.81,74.14 -1.18,71.53 -1.44,68.91 -1.60,66.29 -1.65,63.69"/>
    </edge>

    <junction id="bottom" type="priority" x="63.66" y="0.00" incLanes="left_0" intLanes="" shape="63.74,-0.05 63.80,-3.25 63.52,-3.25 63.58,-0.05">
        <request index="0" response="0" foes="0"/>
    </junction>
    <junction id="left" type="priority" x="0.00" y="63.66" incLanes="top_0" intLanes="" shape="-3.25,63.80 -0.05,63.74 -0.05,63.58 -3.25,63.52">
        <request index="0" response="0" foes="0"/>
    </junction>
    <junction id="right" type="priority" x="127.32" y="63.66" incLanes="bottom_0" intLanes="" shape="130.57,63.52 127.37,63.58 127.37,63.74 130.57,63.80">
        <request index="0" response="0" foes="0"/>
    </junction>
    <junction id="top" type="priority" x="63.66" y="127.32" incLanes="right_0" intLanes="" shape="63.80,130.57 63.74,127.37 63.58,127.37 63.52,130.57">
        <request index="0" response="0" foes="0"/>
    </junction>

    <connection from="bottom" to="right" fromLane="0" toLane="0" dir="s" state="M"/>
    <connection from="left" to="bottom" fromLane="0" toLane="0" dir="s" state="M"/>
    <connection from="right" to="top" fromLane="0" toLane="0" dir="s" state="M"/>
    <connection from="top" to="left" fromLane="0" toLane="0" dir="s" state="M"/>

</net>
