<?xml version='1.0' encoding='UTF-8'?>
<configuration xmlns:xsi="http://www.w3.org/2001/XMLSchema-instance" xsi:noNamespaceSchemaLocation="http://sumo.dlr.de/xsd/sumoConfiguration.xsd">
  <input>
    <net-file value="/Users/vanderbilt/Desktop/Research_2020/flow/examples/exp_configs/templates/sumo/i210_with_ghost_cell.xml"/>
    <route-files value="I-210_subnetwork_20200413-1712591586815979.467454.rou.xml"/>
    <additional-files value="I-210_subnetwork_20200413-1712591586815979.467454.add.xml"/>
    <gui-settings-file value="I-210_subnetwork_20200413-1712591586815979.467454.gui.cfg"/>
  </input>
  <time>
    <begin value="0"/>
  </time>
</configuration>
