<?xml version='1.0' encoding='UTF-8'?>
<routes xmlns:xsi="http://www.w3.org/2001/XMLSchema-instance" xsi:noNamespaceSchemaLocation="http://sumo.dlr.de/xsd/routes_file.xsd">
  <route id="route119257914_0" edges="119257914 119257908#0 119257908#1-AddedOnRampEdge 119257908#1 119257908#1-AddedOffRampEdge 119257908#2 119257908#3"/>
  <flow id="flow_00" route="route119257914_0" type="human" departLane="best" departSpeed="20.0" begin="1" end="86400" vehsPerHour="10800.0"/>
</routes>
