<?xml version="1.0" encoding="UTF-8"?>
<routes xmlns:xsi="http://www.w3.org/2001/XMLSchema-instance" xsi:noNamespaceSchemaLocation="http://sumo.sf.net/xsd/routes_file.xsd">
    <vType accel="1.5" decel="4.5" id="car" length="4" maxSpeed="50"/>
    
   
    <route id="r0" edges="e0 e1 e2 e3 e4 e5 e6 e7 e8 e9 e10 e11 e12 e13 e14 e15 e16 e17 e18 e19 e20 e21"/>
    <route id="r1" edges="e1 e2 e3 e4 e5 e6 e7 e8 e9 e10 e11 e12 e13 e14 e15 e16 e17 e18 e19 e20 e21 e0"/>
    <route id="r2" edges="e2 e3 e4 e5 e6 e7 e8 e9 e10 e11 e12 e13 e14 e15 e16 e17 e18 e19 e20 e21 e0 e1"/>
    <route id="r3" edges="e3 e4 e5 e6 e7 e8 e9 e10 e11 e12 e13 e14 e15 e16 e17 e18 e19 e20 e21 e0 e1 e2"/>
    <route id="r4" edges="e4 e5 e6 e7 e8 e9 e10 e11 e12 e13 e14 e15 e16 e17 e18 e19 e20 e21 e0 e1 e2 e3"/>
    <route id="r5" edges="e5 e6 e7 e8 e9 e10 e11 e12 e13 e14 e15 e16 e17 e18 e19 e20 e21 e0 e1 e2 e3 e4"/>
    <route id="r6" edges="e6 e7 e8 e9 e10 e11 e12 e13 e14 e15 e16 e17 e18 e19 e20 e21 e0 e1 e2 e3 e4 e5"/>
    <route id="r7" edges="e7 e8 e9 e10 e11 e12 e13 e14 e15 e16 e17 e18 e19 e20 e21 e0 e1 e2 e3 e4 e5 e6"/>
    <route id="r8" edges="e8 e9 e10 e11 e12 e13 e14 e15 e16 e17 e18 e19 e20 e21 e0 e1 e2 e3 e4 e5 e6 e7"/>
    <route id="r9" edges="e9 e10 e11 e12 e13 e14 e15 e16 e17 e18 e19 e20 e21 e0 e1 e2 e3 e4 e5 e6 e7 e8"/>
    <route id="r10" edges="e10 e11 e12 e13 e14 e15 e16 e17 e18 e19 e20 e21 e0 e1 e2 e3 e4 e5 e6 e7 e8 e9"/>
    <route id="r11" edges="e11 e12 e13 e14 e15 e16 e17 e18 e19 e20 e21 e0 e1 e2 e3 e4 e5 e6 e7 e8 e9 e10"/>
    <route id="r12" edges="e12 e13 e14 e15 e16 e17 e18 e19 e20 e21 e0 e1 e2 e3 e4 e5 e6 e7 e8 e9 e10 e11"/>
    <route id="r13" edges="e13 e14 e15 e16 e17 e18 e19 e20 e21 e0 e1 e2 e3 e4 e5 e6 e7 e8 e9 e10 e11 e12"/>
    <route id="r14" edges="e14 e15 e16 e17 e18 e19 e20 e21 e0 e1 e2 e3 e4 e5 e6 e7 e8 e9 e10 e11 e12 e13"/>
    <route id="r15" edges="e15 e16 e17 e18 e19 e20 e21 e0 e1 e2 e3 e4 e5 e6 e7 e8 e9 e10 e11 e12 e13 e14"/>
    <route id="r16" edges="e16 e17 e18 e19 e20 e21 e0 e1 e2 e3 e4 e5 e6 e7 e8 e9 e10 e11 e12 e13 e14 e15"/>
    <route id="r17" edges="e17 e18 e19 e20 e21 e0 e1 e2 e3 e4 e5 e6 e7 e8 e9 e10 e11 e12 e13 e14 e15 e16"/>
    <route id="r18" edges="e18 e19 e20 e21 e0 e1 e2 e3 e4 e5 e6 e7 e8 e9 e10 e11 e12 e13 e14 e15 e16 e17"/>
    <route id="r19" edges="e19 e20 e21 e0 e1 e2 e3 e4 e5 e6 e7 e8 e9 e10 e11 e12 e13 e14 e15 e16 e17 e18"/>
    <route id="r20" edges="e20 e21 e0 e1 e2 e3 e4 e5 e6 e7 e8 e9 e10 e11 e12 e13 e14 e15 e16 e17 e18 e19"/>
    <route id="r21" edges="e21 e0 e1 e2 e3 e4 e5 e6 e7 e8 e9 e10 e11 e12 e13 e14 e15 e16 e17 e18 e19 e20"/>
    

<vehicle id="0" type="car" route="r0" depart="0" departSpeed="20" color="1,0.0,0.0"/>
<!-- <vehicle id="1" type="car" route="r1" depart="0" departSpeed="2" color="1,0.05,0.05"/>
<vehicle id="2" type="car" route="r2" depart="0" departSpeed="2" color="1,0.1,0.1"/>
<vehicle id="3" type="car" route="r3" depart="0" departSpeed="2" color="1,0.14,0.14"/>
<vehicle id="4" type="car" route="r4" depart="0" departSpeed="2" color="1,0.19,0.19"/>
<vehicle id="5" type="car" route="r5" depart="0" departSpeed="5" color="1,0.24,0.24"/>
<vehicle id="6" type="car" route="r6" depart="0" departSpeed="2" color="1,0.29,0.29"/> -->
<vehicle id="7" type="car" route="r7" depart="0" departSpeed="2" color="1,0.33,0.33"/>
<!-- <vehicle id="8" type="car" route="r8" depart="0" departSpeed="2" color="1,0.38,0.38"/>
<vehicle id="9" type="car" route="r9" depart="0" departSpeed="2" color="1,0.43,0.43"/>
<vehicle id="10" type="car" route="r10" depart="0" departSpeed="2" color="1,0.48,0.48"/> -->
<vehicle id="11" type="car" route="r11" depart="0" departSpeed="20" color="1,0.52,0.52"/>
<!-- <vehicle id="12" type="car" route="r12" depart="0" color="1,0.57,0.57"/>
<vehicle id="13" type="car" route="r13" depart="0" color="1,0.62,0.62"/>
<vehicle id="14" type="car" route="r14" depart="0" color="1,0.67,0.67"/>
<vehicle id="15" type="car" route="r15" depart="0" color="1,0.71,0.71"/>
<vehicle id="16" type="car" route="r16" depart="0" color="1,0.76,0.76"/> -->
<vehicle id="17" type="car" route="r17" depart="0" departSpeed="2" color="1,0.81,0.81"/>
<!-- <vehicle id="18" type="car" route="r18" depart="0" color="1,0.86,0.86"/>
<vehicle id="19" type="car" route="r19" depart="0" color="1,0.9,0.9"/>
<vehicle id="20" type="car" route="r20" depart="0" color="1,0.95,0.95"/> -->
<!-- <vehicle id="21" type="car" route="r21" depart="0" color="1,1.0,1.0"/> -->
</routes>