<?xml version='1.0' encoding='UTF-8'?>
<routes xmlns:xsi="http://www.w3.org/2001/XMLSchema-instance" xsi:noNamespaceSchemaLocation="http://sumo.dlr.de/xsd/routes_file.xsd">
  <vType accel="1.5" decel="4.5" id="car" length="5" maxSpeed="35"/>
  <flow begin="0" departPos="free" id="carbottom" number="3.0" period="1" route="routebottom" type="car"/>
  <flow begin="0" departPos="free" id="carleft" number="3.0" period="1" route="routeleft" type="car"/>
  <flow begin="0" departPos="free" id="carright" number="3.0" period="1" route="routeright" type="car"/>
  <flow begin="0" departPos="free" id="cartop" number="3.0" period="1" route="routetop" type="car"/>
</routes>
