<?xml version="1.0" encoding="UTF-8"?>

<!-- generated on Wed Feb  1 11:40:59 2017 by SUMO netconvert Version 0.27.1
<?xml version="1.0" encoding="UTF-8"?>

<configuration xmlns:xsi="http://www.w3.org/2001/XMLSchema-instance" xsi:noNamespaceSchemaLocation="http://sumo.dlr.de/xsd/netconvertConfiguration.xsd">

    <input>
        <node-files value="debug/net/test-exp-400m1l.nod.xml"/>
        <edge-files value="debug/net/test-exp-400m1l.edg.xml"/>
        <type-files value="debug/net/test-exp-400m1l.typ.xml"/>
    </input>

    <output>
        <output-file value="debug/cfg/test-exp-400m1l.net.xml"/>
    </output>

    <processing>
        <no-internal-links value="true"/>
        <no-turnarounds value="true"/>
    </processing>

</configuration>
-->

<net version="0.27" xmlns:xsi="http://www.w3.org/2001/XMLSchema-instance" xsi:noNamespaceSchemaLocation="http://sumo.dlr.de/xsd/net_file.xsd">

    <location netOffset="127.32,127.32" convBoundary="0.00,0.00,254.65,254.65" origBoundary="-127.32,-127.32,127.32,127.32" projParameter="!"/>

    <type id="edgeType" numLanes="1" speed="35.00"/>

    <edge id="bottom" from="bottom" to="right" priority="-1" type="edgeType" length="100.00" shape="127.32,0.00 132.45,0.10 137.57,0.41 142.67,0.92 147.74,1.64 152.79,2.57 157.79,3.70 162.74,5.02 167.64,6.55 172.47,8.27 177.23,10.18 181.90,12.29 186.49,14.58 190.98,17.05 195.37,19.71 199.65,22.53 203.81,25.53 207.85,28.69 211.75,32.02 215.52,35.49 219.15,39.12 222.62,42.89 225.95,46.79 229.11,50.83 232.11,54.99 234.93,59.27 237.59,63.66 240.06,68.15 242.35,72.74 244.46,77.41 246.37,82.17 248.09,87.00 249.62,91.90 250.94,96.85 252.07,101.85 253.00,106.90 253.72,111.97 254.23,117.07 254.54,122.19 254.64,127.32">
        <lane id="bottom_0" index="0" speed="35.00" length="100.00" shape="127.36,-1.65 132.52,-1.55 137.71,-1.23 142.87,-0.71 148.01,0.02 153.13,0.96 158.19,2.10 163.20,3.44 168.17,4.99 173.06,6.73 177.88,8.67 182.61,10.80 187.26,13.12 191.81,15.62 196.26,18.32 200.59,21.18 204.81,24.21 208.90,27.42 212.85,30.79 216.67,34.30 220.34,37.98 223.86,41.80 227.23,45.75 230.43,49.84 233.47,54.06 236.33,58.39 239.02,62.84 241.53,67.39 243.84,72.04 245.98,76.77 247.92,81.59 249.66,86.48 251.21,91.45 252.55,96.46 253.69,101.52 254.63,106.64 255.36,111.78 255.88,116.94 256.19,122.13 256.29,127.29"/>
    </edge>
    <edge id="left" from="left" to="bottom" priority="-1" type="edgeType" length="100.00" shape="0.00,127.32 0.10,122.19 0.41,117.07 0.92,111.97 1.64,106.90 2.57,101.85 3.70,96.85 5.02,91.90 6.55,87.00 8.27,82.17 10.18,77.41 12.29,72.74 14.58,68.15 17.05,63.66 19.71,59.27 22.53,54.99 25.53,50.83 28.69,46.79 32.02,42.89 35.49,39.12 39.12,35.49 42.89,32.02 46.79,28.69 50.83,25.53 54.99,22.53 59.27,19.71 63.66,17.05 68.15,14.58 72.74,12.29 77.41,10.18 82.17,8.27 87.00,6.55 91.90,5.02 96.85,3.70 101.85,2.57 106.90,1.64 111.97,0.92 117.07,0.41 122.19,0.10 127.32,0.00">
        <lane id="left_0" index="0" speed="35.00" length="100.00" shape="-1.65,127.29 -1.55,122.13 -1.23,116.94 -0.71,111.78 0.02,106.64 0.96,101.52 2.10,96.46 3.44,91.45 4.99,86.48 6.73,81.59 8.67,76.77 10.80,72.04 13.12,67.39 15.62,62.84 18.32,58.39 21.18,54.06 24.21,49.84 27.42,45.75 30.79,41.80 34.30,37.98 37.98,34.30 41.80,30.79 45.75,27.42 49.84,24.21 54.06,21.18 58.39,18.32 62.84,15.62 67.39,13.12 72.04,10.80 76.77,8.67 81.59,6.73 86.48,4.99 91.45,3.44 96.46,2.10 101.52,0.96 106.64,0.02 111.78,-0.71 116.94,-1.23 122.13,-1.55 127.29,-1.65"/>
    </edge>
    <edge id="right" from="right" to="top" priority="-1" type="edgeType" length="100.00" shape="254.64,127.32 254.54,132.45 254.23,137.57 253.72,142.67 253.00,147.74 252.07,152.79 250.94,157.79 249.62,162.74 248.09,167.64 246.37,172.47 244.46,177.23 242.35,181.90 240.06,186.49 237.59,190.98 234.93,195.37 232.11,199.65 229.11,203.81 225.95,207.85 222.62,211.75 219.15,215.52 215.52,219.15 211.75,222.62 207.85,225.95 203.81,229.11 199.65,232.11 195.37,234.93 190.98,237.59 186.49,240.06 181.90,242.35 177.23,244.46 172.47,246.37 167.64,248.09 162.74,249.62 157.79,250.94 152.79,252.07 147.74,253.00 142.67,253.72 137.57,254.23 132.45,254.54 127.32,254.64">
        <lane id="right_0" index="0" speed="35.00" length="100.00" shape="256.29,127.36 256.19,132.52 255.88,137.71 255.36,142.87 254.63,148.01 253.69,153.13 252.55,158.19 251.21,163.20 249.66,168.17 247.92,173.06 245.98,177.88 243.84,182.61 241.53,187.26 239.02,191.81 236.33,196.26 233.47,200.59 230.43,204.81 227.23,208.90 223.86,212.85 220.34,216.67 216.67,220.34 212.85,223.86 208.90,227.23 204.81,230.43 200.59,233.47 196.26,236.33 191.81,239.02 187.26,241.53 182.61,243.84 177.88,245.98 173.06,247.92 168.17,249.66 163.20,251.21 158.19,252.55 153.13,253.69 148.01,254.63 142.87,255.36 137.71,255.88 132.52,256.19 127.36,256.29"/>
    </edge>
    <edge id="top" from="top" to="left" priority="-1" type="edgeType" length="100.00" shape="127.32,254.64 122.19,254.54 117.07,254.23 111.97,253.72 106.90,253.00 101.85,252.07 96.85,250.94 91.90,249.62 87.00,248.09 82.17,246.37 77.41,244.46 72.74,242.35 68.15,240.06 63.66,237.59 59.27,234.93 54.99,232.11 50.83,229.11 46.79,225.95 42.89,222.62 39.12,219.15 35.49,215.52 32.02,211.75 28.69,207.85 25.53,203.81 22.53,199.65 19.71,195.37 17.05,190.98 14.58,186.49 12.29,181.90 10.18,177.23 8.27,172.47 6.55,167.64 5.02,162.74 3.70,157.79 2.57,152.79 1.64,147.74 0.92,142.67 0.41,137.57 0.10,132.45 0.00,127.32">
        <lane id="top_0" index="0" speed="35.00" length="100.00" shape="127.29,256.29 122.13,256.19 116.94,255.88 111.78,255.36 106.64,254.63 101.52,253.69 96.46,252.55 91.45,251.21 86.48,249.66 81.59,247.92 76.77,245.98 72.04,243.84 67.39,241.53 62.84,239.02 58.39,236.33 54.06,233.47 49.84,230.43 45.75,227.23 41.80,223.86 37.98,220.34 34.30,216.67 30.79,212.85 27.42,208.90 24.21,204.81 21.18,200.59 18.32,196.26 15.62,191.81 13.12,187.26 10.80,182.61 8.67,177.88 6.73,173.06 4.99,168.17 3.44,163.20 2.10,158.19 0.96,153.13 0.02,148.01 -0.71,142.87 -1.23,137.71 -1.55,132.52 -1.65,127.36"/>
    </edge>

    <junction id="bottom" type="priority" x="127.32" y="0.00" incLanes="left_0" intLanes="" shape="127.25,-0.05 127.32,-3.25 127.39,-0.05">
        <request index="0" response="0" foes="0"/>
    </junction>
    <junction id="left" type="priority" x="0.00" y="127.32" incLanes="top_0" intLanes="" shape="-3.25,127.32 -0.05,127.25 -0.05,127.39 -3.25,127.33">
        <request index="0" response="0" foes="0"/>
    </junction>
    <junction id="right" type="priority" x="254.65" y="127.32" incLanes="bottom_0" intLanes="" shape="257.89,127.33 254.70,127.39 254.70,127.25 257.89,127.32">
        <request index="0" response="0" foes="0"/>
    </junction>
    <junction id="top" type="priority" x="127.32" y="254.65" incLanes="right_0" intLanes="" shape="127.32,257.89 127.25,254.70 127.39,254.70 127.33,257.89">
        <request index="0" response="0" foes="0"/>
    </junction>

    <connection from="bottom" to="right" fromLane="0" toLane="0" dir="s" state="M"/>
    <connection from="left" to="bottom" fromLane="0" toLane="0" dir="s" state="M"/>
    <connection from="right" to="top" fromLane="0" toLane="0" dir="s" state="M"/>
    <connection from="top" to="left" fromLane="0" toLane="0" dir="s" state="M"/>

</net>
