<?xml version='1.0' encoding='UTF-8'?>
<edges xmlns:xsi="http://www.w3.org/2001/XMLSchema-instance" xsi:noNamespaceSchemaLocation="http://sumo.dlr.de/xsd/edges_file.xsd">
  <edge from="bottom" id="bottom" length="57.5" shape="0.00,-36.61 1.47,-36.58 2.95,-36.49 4.41,-36.34 5.87,-36.13 7.32,-35.87 8.76,-35.54 10.18,-35.16 11.59,-34.72 12.98,-34.23 14.35,-33.68 15.69,-33.07 17.01,-32.41 18.30,-31.70 19.56,-30.94 20.79,-30.13 21.99,-29.26 23.15,-28.35 24.27,-27.40 25.36,-26.40 26.40,-25.36 27.40,-24.27 28.35,-23.15 29.26,-21.99 30.13,-20.79 30.94,-19.56 31.70,-18.30 32.41,-17.01 33.07,-15.69 33.68,-14.35 34.23,-12.98 34.72,-11.59 35.16,-10.18 35.54,-8.76 35.87,-7.32 36.13,-5.87 36.34,-4.41 36.49,-2.95 36.58,-1.47 36.61,0.00" to="right" type="edgeType"/>
  <edge from="right" id="right" length="57.5" shape="36.61,0.00 36.58,1.47 36.49,2.95 36.34,4.41 36.13,5.87 35.87,7.32 35.54,8.76 35.16,10.18 34.72,11.59 34.23,12.98 33.68,14.35 33.07,15.69 32.41,17.01 31.70,18.30 30.94,19.56 30.13,20.79 29.26,21.99 28.35,23.15 27.40,24.27 26.40,25.36 25.36,26.40 24.27,27.40 23.15,28.35 21.99,29.26 20.79,30.13 19.56,30.94 18.30,31.70 17.01,32.41 15.69,33.07 14.35,33.68 12.98,34.23 11.59,34.72 10.18,35.16 8.76,35.54 7.32,35.87 5.87,36.13 4.41,36.34 2.95,36.49 1.47,36.58 0.00,36.61" to="top" type="edgeType"/>
  <edge from="top" id="top" length="57.5" shape="0.00,36.61 -1.47,36.58 -2.95,36.49 -4.41,36.34 -5.87,36.13 -7.32,35.87 -8.76,35.54 -10.18,35.16 -11.59,34.72 -12.98,34.23 -14.35,33.68 -15.69,33.07 -17.01,32.41 -18.30,31.70 -19.56,30.94 -20.79,30.13 -21.99,29.26 -23.15,28.35 -24.27,27.40 -25.36,26.40 -26.40,25.36 -27.40,24.27 -28.35,23.15 -29.26,21.99 -30.13,20.79 -30.94,19.56 -31.70,18.30 -32.41,17.01 -33.07,15.69 -33.68,14.35 -34.23,12.98 -34.72,11.59 -35.16,10.18 -35.54,8.76 -35.87,7.32 -36.13,5.87 -36.34,4.41 -36.49,2.95 -36.58,1.47 -36.61,0.00" to="left" type="edgeType"/>
  <edge from="left" id="left" length="57.5" shape="-36.61,0.00 -36.58,-1.47 -36.49,-2.95 -36.34,-4.41 -36.13,-5.87 -35.87,-7.32 -35.54,-8.76 -35.16,-10.18 -34.72,-11.59 -34.23,-12.98 -33.68,-14.35 -33.07,-15.69 -32.41,-17.01 -31.70,-18.30 -30.94,-19.56 -30.13,-20.79 -29.26,-21.99 -28.35,-23.15 -27.40,-24.27 -26.40,-25.36 -25.36,-26.40 -24.27,-27.40 -23.15,-28.35 -21.99,-29.26 -20.79,-30.13 -19.56,-30.94 -18.30,-31.70 -17.01,-32.41 -15.69,-33.07 -14.35,-33.68 -12.98,-34.23 -11.59,-34.72 -10.18,-35.16 -8.76,-35.54 -7.32,-35.87 -5.87,-36.13 -4.41,-36.34 -2.95,-36.49 -1.47,-36.58 -0.00,-36.61" to="bottom" type="edgeType"/>
</edges>
