<?xml version='1.0' encoding='UTF-8'?>
<routes xmlns:xsi="http://www.w3.org/2001/XMLSchema-instance">
    <vType id="DEFAULT_PEDTYPE" vClass="pedestrian"/>
    <vType id="DEFAULT_VEHTYPE"/>
    <vType id="fillgapmidpoint"/>
    <vType id="human"/>
    <vehicle id="0" depart="0.00" route="routebottom" type="human"  departPos="0.00" departSpeed="20.00"  />
    <vehicle id="1" depart="0.00" route="routebottom" type="human"  departPos="70.00" departSpeed="20.00"  />
    <vehicle id="2" depart="0.00" route="routebottom" type="human"  departPos="140.00" departSpeed="20.00"  />
    <vehicle id="3" depart="0.00" route="routeright" type="human"  departPos="0.00" departSpeed="20.00"  />
    <vehicle id="4" depart="0.00" route="routeright" type="human"  departPos="70.00" departSpeed="20.00"  />
    <vehicle id="5" depart="0.00" route="routeright" type="human"  departPos="140.00" departSpeed="20.00"  />
    <vehicle id="6" depart="0.00" route="routetop" type="human"  departPos="0.00" departSpeed="20.00"  />
    <vehicle id="7" depart="0.00" route="routetop" type="human"  departPos="70.00" departSpeed="20.00"  />
    <vehicle id="8" depart="0.00" route="routetop" type="human"  departPos="140.00" departSpeed="20.00"  />
    <vehicle id="9" depart="0.00" route="routeleft" type="human"  departPos="0.00" departSpeed="20.00"  />
    <vehicle id="10" depart="0.00" route="routeleft" type="human"  departPos="70.00" departSpeed="20.00"  />
    <vehicle id="11" depart="0.00" route="routeleft" type="human"  departPos="140.00" departSpeed="20.00"  />
    <lane id="bottom_0">
        <vehicles value="human-005 human-004 human-007"/>
    </lane>
    <lane id="bottom_1">
        <vehicles value=""/>
    </lane>
    <lane id="left_0">
        <vehicles value="human-008 human-010 fillgapmidpoint-000"/>
    </lane>
    <lane id="left_1">
        <vehicles value=""/>
    </lane>
    <lane id="right_0">
        <vehicles value="human-006 human-001 human-000"/>
    </lane>
    <lane id="right_1">
        <vehicles value=""/>
    </lane>
    <lane id="top_0">
        <vehicles value="human-003 human-002 human-009"/>
    </lane>
    <lane id="top_1">
        <vehicles value=""/>
    </lane>
</routes>
