<?xml version='1.0' encoding='UTF-8'?>
<edges xmlns:xsi="http://www.w3.org/2001/XMLSchema-instance" xsi:noNamespaceSchemaLocation="http://sumo.dlr.de/xsd/edges_file.xsd">
  <edge from="bottom" id="bottom" length="50.0" shape="0.00,-63.66 2.56,-63.61 5.12,-63.46 7.67,-63.20 10.21,-62.84 12.73,-62.38 15.24,-61.81 17.71,-61.15 20.16,-60.39 22.57,-59.52 24.95,-58.57 27.29,-57.52 29.59,-56.37 31.83,-55.13 34.03,-53.81 36.16,-52.39 38.24,-50.89 40.26,-49.31 42.22,-47.65 44.10,-45.91 45.91,-44.10 47.65,-42.22 49.31,-40.26 50.89,-38.24 52.39,-36.16 53.81,-34.03 55.13,-31.83 56.37,-29.59 57.52,-27.29 58.57,-24.95 59.52,-22.57 60.39,-20.16 61.15,-17.71 61.81,-15.24 62.38,-12.73 62.84,-10.21 63.20,-7.67 63.46,-5.12 63.61,-2.56 63.66,0.00" to="right" type="edgeType"/>
  <edge from="right" id="right" length="50.0" shape="63.66,0.00 63.61,2.56 63.46,5.12 63.20,7.67 62.84,10.21 62.38,12.73 61.81,15.24 61.15,17.71 60.39,20.16 59.52,22.57 58.57,24.95 57.52,27.29 56.37,29.59 55.13,31.83 53.81,34.03 52.39,36.16 50.89,38.24 49.31,40.26 47.65,42.22 45.91,44.10 44.10,45.91 42.22,47.65 40.26,49.31 38.24,50.89 36.16,52.39 34.03,53.81 31.83,55.13 29.59,56.37 27.29,57.52 24.95,58.57 22.57,59.52 20.16,60.39 17.71,61.15 15.24,61.81 12.73,62.38 10.21,62.84 7.67,63.20 5.12,63.46 2.56,63.61 0.00,63.66" to="top" type="edgeType"/>
  <edge from="top" id="top" length="50.0" shape="0.00,63.66 -2.56,63.61 -5.12,63.46 -7.67,63.20 -10.21,62.84 -12.73,62.38 -15.24,61.81 -17.71,61.15 -20.16,60.39 -22.57,59.52 -24.95,58.57 -27.29,57.52 -29.59,56.37 -31.83,55.13 -34.03,53.81 -36.16,52.39 -38.24,50.89 -40.26,49.31 -42.22,47.65 -44.10,45.91 -45.91,44.10 -47.65,42.22 -49.31,40.26 -50.89,38.24 -52.39,36.16 -53.81,34.03 -55.13,31.83 -56.37,29.59 -57.52,27.29 -58.57,24.95 -59.52,22.57 -60.39,20.16 -61.15,17.71 -61.81,15.24 -62.38,12.73 -62.84,10.21 -63.20,7.67 -63.46,5.12 -63.61,2.56 -63.66,0.00" to="left" type="edgeType"/>
  <edge from="left" id="left" length="50.0" shape="-63.66,0.00 -63.61,-2.56 -63.46,-5.12 -63.20,-7.67 -62.84,-10.21 -62.38,-12.73 -61.81,-15.24 -61.15,-17.71 -60.39,-20.16 -59.52,-22.57 -58.57,-24.95 -57.52,-27.29 -56.37,-29.59 -55.13,-31.83 -53.81,-34.03 -52.39,-36.16 -50.89,-38.24 -49.31,-40.26 -47.65,-42.22 -45.91,-44.10 -44.10,-45.91 -42.22,-47.65 -40.26,-49.31 -38.24,-50.89 -36.16,-52.39 -34.03,-53.81 -31.83,-55.13 -29.59,-56.37 -27.29,-57.52 -24.95,-58.57 -22.57,-59.52 -20.16,-60.39 -17.71,-61.15 -15.24,-61.81 -12.73,-62.38 -10.21,-62.84 -7.67,-63.20 -5.12,-63.46 -2.56,-63.61 -0.00,-63.66" to="bottom" type="edgeType"/>
</edges>
