<?xml version='1.0' encoding='UTF-8'?>
<edges xmlns:xsi="http://www.w3.org/2001/XMLSchema-instance" xsi:noNamespaceSchemaLocation="http://sumo.dlr.de/xsd/edges_file.xsd">
  <edge from="bottom" id="bottom" length="100.0" shape="0.00,-127.32 5.13,-127.22 10.25,-126.91 15.35,-126.40 20.42,-125.68 25.47,-124.75 30.47,-123.62 35.42,-122.30 40.32,-120.77 45.15,-119.05 49.91,-117.14 54.58,-115.03 59.17,-112.74 63.66,-110.27 68.05,-107.61 72.33,-104.79 76.49,-101.79 80.53,-98.63 84.43,-95.30 88.20,-91.83 91.83,-88.20 95.30,-84.43 98.63,-80.53 101.79,-76.49 104.79,-72.33 107.61,-68.05 110.27,-63.66 112.74,-59.17 115.03,-54.58 117.14,-49.91 119.05,-45.15 120.77,-40.32 122.30,-35.42 123.62,-30.47 124.75,-25.47 125.68,-20.42 126.40,-15.35 126.91,-10.25 127.22,-5.13 127.32,0.00" to="right" type="edgeType"/>
  <edge from="right" id="right" length="100.0" shape="127.32,0.00 127.22,5.13 126.91,10.25 126.40,15.35 125.68,20.42 124.75,25.47 123.62,30.47 122.30,35.42 120.77,40.32 119.05,45.15 117.14,49.91 115.03,54.58 112.74,59.17 110.27,63.66 107.61,68.05 104.79,72.33 101.79,76.49 98.63,80.53 95.30,84.43 91.83,88.20 88.20,91.83 84.43,95.30 80.53,98.63 76.49,101.79 72.33,104.79 68.05,107.61 63.66,110.27 59.17,112.74 54.58,115.03 49.91,117.14 45.15,119.05 40.32,120.77 35.42,122.30 30.47,123.62 25.47,124.75 20.42,125.68 15.35,126.40 10.25,126.91 5.13,127.22 0.00,127.32" to="top" type="edgeType"/>
  <edge from="top" id="top" length="100.0" shape="0.00,127.32 -5.13,127.22 -10.25,126.91 -15.35,126.40 -20.42,125.68 -25.47,124.75 -30.47,123.62 -35.42,122.30 -40.32,120.77 -45.15,119.05 -49.91,117.14 -54.58,115.03 -59.17,112.74 -63.66,110.27 -68.05,107.61 -72.33,104.79 -76.49,101.79 -80.53,98.63 -84.43,95.30 -88.20,91.83 -91.83,88.20 -95.30,84.43 -98.63,80.53 -101.79,76.49 -104.79,72.33 -107.61,68.05 -110.27,63.66 -112.74,59.17 -115.03,54.58 -117.14,49.91 -119.05,45.15 -120.77,40.32 -122.30,35.42 -123.62,30.47 -124.75,25.47 -125.68,20.42 -126.40,15.35 -126.91,10.25 -127.22,5.13 -127.32,0.00" to="left" type="edgeType"/>
  <edge from="left" id="left" length="100.0" shape="-127.32,0.00 -127.22,-5.13 -126.91,-10.25 -126.40,-15.35 -125.68,-20.42 -124.75,-25.47 -123.62,-30.47 -122.30,-35.42 -120.77,-40.32 -119.05,-45.15 -117.14,-49.91 -115.03,-54.58 -112.74,-59.17 -110.27,-63.66 -107.61,-68.05 -104.79,-72.33 -101.79,-76.49 -98.63,-80.53 -95.30,-84.43 -91.83,-88.20 -88.20,-91.83 -84.43,-95.30 -80.53,-98.63 -76.49,-101.79 -72.33,-104.79 -68.05,-107.61 -63.66,-110.27 -59.17,-112.74 -54.58,-115.03 -49.91,-117.14 -45.15,-119.05 -40.32,-120.77 -35.42,-122.30 -30.47,-123.62 -25.47,-124.75 -20.42,-125.68 -15.35,-126.40 -10.25,-126.91 -5.13,-127.22 -0.00,-127.32" to="bottom" type="edgeType"/>
</edges>
