<?xml version='1.0' encoding='UTF-8'?>
<nodes xmlns:xsi="http://www.w3.org/2001/XMLSchema-instance" xsi:noNamespaceSchemaLocation="http://sumo.dlr.de/xsd/nodes_file.xsd">
  <node id="bottom" x="0" y="-63.66197723675813"/>
  <node id="right" x="63.66197723675813" y="0"/>
  <node id="top" x="0" y="63.66197723675813"/>
  <node id="left" x="-63.66197723675813" y="0"/>
</nodes>
