<?xml version='1.0' encoding='UTF-8'?>
<routes xmlns:xsi="http://www.w3.org/2001/XMLSchema-instance" xsi:noNamespaceSchemaLocation="http://sumo.dlr.de/xsd/routes_file.xsd">
  <vType id="idm" minGap="0"/>
  <vehicle color="1,0.0,0.0" depart="0" departLane="0" departPos="1" departSpeed="0" id="idm_0" route="routebottom" type="idm"/>
  <vehicle color="1,0.0,0.0" depart="0" departLane="0" departPos="10.545454545454545" departSpeed="0" id="idm_1" route="routebottom" type="idm"/>
  <vehicle color="1,0.0,0.0" depart="0" departLane="0" departPos="20.09090909090909" departSpeed="0" id="idm_2" route="routebottom" type="idm"/>
  <vehicle color="1,0.0,0.0" depart="0" departLane="0" departPos="29.636363636363633" departSpeed="0" id="idm_3" route="routebottom" type="idm"/>
  <vehicle color="1,0.0,0.0" depart="0" departLane="0" departPos="39.18181818181818" departSpeed="0" id="idm_4" route="routebottom" type="idm"/>
  <vehicle color="1,0.0,0.0" depart="0" departLane="0" departPos="48.72727272727273" departSpeed="0" id="idm_5" route="routebottom" type="idm"/>
  <vehicle color="1,0.0,0.0" depart="0" departLane="0" departPos="0.7727272727272734" departSpeed="0" id="idm_6" route="routeright" type="idm"/>
  <vehicle color="1,0.0,0.0" depart="0" departLane="0" departPos="10.318181818181813" departSpeed="0" id="idm_7" route="routeright" type="idm"/>
  <vehicle color="1,0.0,0.0" depart="0" departLane="0" departPos="19.86363636363636" departSpeed="0" id="idm_8" route="routeright" type="idm"/>
  <vehicle color="1,0.0,0.0" depart="0" departLane="0" departPos="29.409090909090907" departSpeed="0" id="idm_9" route="routeright" type="idm"/>
  <vehicle color="1,0.0,0.0" depart="0" departLane="0" departPos="38.95454545454545" departSpeed="0" id="idm_10" route="routeright" type="idm"/>
  <vehicle color="1,0.0,0.0" depart="0" departLane="0" departPos="48.5" departSpeed="0" id="idm_11" route="routeright" type="idm"/>
  <vehicle color="1,0.0,0.0" depart="0" departLane="0" departPos="0.5454545454545467" departSpeed="0" id="idm_12" route="routetop" type="idm"/>
  <vehicle color="1,0.0,0.0" depart="0" departLane="0" departPos="10.090909090909093" departSpeed="0" id="idm_13" route="routetop" type="idm"/>
  <vehicle color="1,0.0,0.0" depart="0" departLane="0" departPos="19.636363636363626" departSpeed="0" id="idm_14" route="routetop" type="idm"/>
  <vehicle color="1,0.0,0.0" depart="0" departLane="0" departPos="29.18181818181816" departSpeed="0" id="idm_15" route="routetop" type="idm"/>
  <vehicle color="1,0.0,0.0" depart="0" departLane="0" departPos="38.72727272727269" departSpeed="0" id="idm_16" route="routetop" type="idm"/>
  <vehicle color="1,0.0,0.0" depart="0" departLane="0" departPos="48.272727272727224" departSpeed="0" id="idm_17" route="routetop" type="idm"/>
  <vehicle color="1,0.0,0.0" depart="0" departLane="0" departPos="0.31818181818175617" departSpeed="0" id="idm_18" route="routeleft" type="idm"/>
  <vehicle color="1,0.0,0.0" depart="0" departLane="0" departPos="9.863636363636289" departSpeed="0" id="idm_19" route="routeleft" type="idm"/>
  <vehicle color="1,0.0,0.0" depart="0" departLane="0" departPos="19.40909090909082" departSpeed="0" id="idm_20" route="routeleft" type="idm"/>
  <vehicle color="1,0.0,0.0" depart="0" departLane="0" departPos="28.954545454545354" departSpeed="0" id="idm_21" route="routeleft" type="idm"/>
</routes>
