<?xml version="1.0" encoding="UTF-8"?>

<!-- generated on Wed Aug 30 21:21:19 2017 by SUMO netconvert Version dev-SVN-r25535
<?xml version="1.0" encoding="UTF-8"?>

<configuration xmlns:xsi="http://www.w3.org/2001/XMLSchema-instance" xsi:noNamespaceSchemaLocation="http://sumo.dlr.de/xsd/netconvertConfiguration.xsd">

    <input>
        <node-files value="debug/net/sugiyama.nod.xml"/>
        <edge-files value="debug/net/sugiyama.edg.xml"/>
        <type-files value="debug/net/sugiyama.typ.xml"/>
    </input>

    <output>
        <output-file value="debug/cfg/sugiyama.net.xml"/>
    </output>

    <processing>
        <no-internal-links value="true"/>
        <no-turnarounds value="true"/>
    </processing>

</configuration>
-->

<net version="0.27" xmlns:xsi="http://www.w3.org/2001/XMLSchema-instance" xsi:noNamespaceSchemaLocation="http://sumo.dlr.de/xsd/net_file.xsd">

    <location netOffset="36.61,36.61" convBoundary="0.00,0.00,73.22,73.22" origBoundary="-36.61,-36.61,36.61,36.61" projParameter="!"/>

    <type id="edgeType" numLanes="1" speed="30.00"/>

    <edge id="bottom" from="bottom" to="right" priority="-1" type="edgeType" length="57.50" shape="36.61,0.00 38.08,0.03 39.56,0.12 41.02,0.27 42.48,0.48 43.93,0.74 45.37,1.07 46.79,1.45 48.20,1.89 49.59,2.38 50.96,2.93 52.30,3.54 53.62,4.20 54.91,4.91 56.17,5.67 57.40,6.48 58.60,7.35 59.76,8.26 60.88,9.21 61.97,10.21 63.01,11.25 64.01,12.34 64.96,13.46 65.87,14.62 66.74,15.82 67.55,17.05 68.31,18.31 69.02,19.60 69.68,20.92 70.29,22.26 70.84,23.63 71.33,25.02 71.77,26.43 72.15,27.85 72.48,29.29 72.74,30.74 72.95,32.20 73.10,33.66 73.19,35.14 73.22,36.61">
        <lane id="bottom_0" index="0" speed="30.00" length="57.50" shape="36.64,-1.65 38.15,-1.62 39.69,-1.52 41.22,-1.37 42.74,-1.15 44.26,-0.88 45.77,-0.53 47.25,-0.13 48.72,0.32 50.17,0.84 51.61,1.41 53.01,2.05 54.39,2.74 55.73,3.48 57.05,4.27 58.34,5.12 59.59,6.03 60.80,6.98 61.97,7.97 63.11,9.02 64.20,10.11 65.25,11.25 66.24,12.42 67.19,13.63 68.10,14.88 68.95,16.17 69.74,17.49 70.48,18.83 71.17,20.21 71.81,21.61 72.38,23.05 72.90,24.50 73.35,25.97 73.75,27.45 74.10,28.96 74.37,30.48 74.59,32.00 74.74,33.53 74.84,35.07 74.87,36.58"/>
    </edge>
    <edge id="left" from="left" to="bottom" priority="-1" type="edgeType" length="57.50" shape="0.00,36.61 0.03,35.14 0.12,33.66 0.27,32.20 0.48,30.74 0.74,29.29 1.07,27.85 1.45,26.43 1.89,25.02 2.38,23.63 2.93,22.26 3.54,20.92 4.20,19.60 4.91,18.31 5.67,17.05 6.48,15.82 7.35,14.62 8.26,13.46 9.21,12.34 10.21,11.25 11.25,10.21 12.34,9.21 13.46,8.26 14.62,7.35 15.82,6.48 17.05,5.67 18.31,4.91 19.60,4.20 20.92,3.54 22.26,2.93 23.63,2.38 25.02,1.89 26.43,1.45 27.85,1.07 29.29,0.74 30.74,0.48 32.20,0.27 33.66,0.12 35.14,0.03 36.61,0.00">
        <lane id="left_0" index="0" speed="30.00" length="57.50" shape="-1.65,36.58 -1.62,35.07 -1.52,33.53 -1.37,32.00 -1.15,30.48 -0.88,28.96 -0.53,27.45 -0.13,25.97 0.32,24.50 0.84,23.05 1.41,21.61 2.05,20.21 2.74,18.83 3.48,17.49 4.27,16.17 5.12,14.88 6.03,13.63 6.98,12.42 7.97,11.25 9.02,10.11 10.11,9.02 11.25,7.97 12.42,6.98 13.63,6.03 14.88,5.12 16.17,4.27 17.49,3.48 18.83,2.74 20.21,2.05 21.61,1.41 23.05,0.84 24.50,0.32 25.97,-0.13 27.45,-0.53 28.96,-0.88 30.48,-1.15 32.00,-1.37 33.53,-1.52 35.07,-1.62 36.58,-1.65"/>
    </edge>
    <edge id="right" from="right" to="top" priority="-1" type="edgeType" length="57.50" shape="73.22,36.61 73.19,38.08 73.10,39.56 72.95,41.02 72.74,42.48 72.48,43.93 72.15,45.37 71.77,46.79 71.33,48.20 70.84,49.59 70.29,50.96 69.68,52.30 69.02,53.62 68.31,54.91 67.55,56.17 66.74,57.40 65.87,58.60 64.96,59.76 64.01,60.88 63.01,61.97 61.97,63.01 60.88,64.01 59.76,64.96 58.60,65.87 57.40,66.74 56.17,67.55 54.91,68.31 53.62,69.02 52.30,69.68 50.96,70.29 49.59,70.84 48.20,71.33 46.79,71.77 45.37,72.15 43.93,72.48 42.48,72.74 41.02,72.95 39.56,73.10 38.08,73.19 36.61,73.22">
        <lane id="right_0" index="0" speed="30.00" length="57.50" shape="74.87,36.64 74.84,38.15 74.74,39.69 74.59,41.22 74.37,42.74 74.10,44.26 73.75,45.77 73.35,47.25 72.90,48.72 72.38,50.17 71.81,51.61 71.17,53.01 70.48,54.39 69.74,55.73 68.95,57.05 68.10,58.34 67.19,59.59 66.24,60.80 65.25,61.97 64.20,63.11 63.11,64.20 61.97,65.25 60.80,66.24 59.59,67.19 58.34,68.10 57.05,68.95 55.73,69.74 54.39,70.48 53.01,71.17 51.61,71.81 50.17,72.38 48.72,72.90 47.25,73.35 45.77,73.75 44.26,74.10 42.74,74.37 41.22,74.59 39.69,74.74 38.15,74.84 36.64,74.87"/>
    </edge>
    <edge id="top" from="top" to="left" priority="-1" type="edgeType" length="57.50" shape="36.61,73.22 35.14,73.19 33.66,73.10 32.20,72.95 30.74,72.74 29.29,72.48 27.85,72.15 26.43,71.77 25.02,71.33 23.63,70.84 22.26,70.29 20.92,69.68 19.60,69.02 18.31,68.31 17.05,67.55 15.82,66.74 14.62,65.87 13.46,64.96 12.34,64.01 11.25,63.01 10.21,61.97 9.21,60.88 8.26,59.76 7.35,58.60 6.48,57.40 5.67,56.17 4.91,54.91 4.20,53.62 3.54,52.30 2.93,50.96 2.38,49.59 1.89,48.20 1.45,46.79 1.07,45.37 0.74,43.93 0.48,42.48 0.27,41.02 0.12,39.56 0.03,38.08 0.00,36.61">
        <lane id="top_0" index="0" speed="30.00" length="57.50" shape="36.58,74.87 35.07,74.84 33.53,74.74 32.00,74.59 30.48,74.37 28.96,74.10 27.45,73.75 25.97,73.35 24.50,72.90 23.05,72.38 21.61,71.81 20.21,71.17 18.83,70.48 17.49,69.74 16.17,68.95 14.88,68.10 13.63,67.19 12.42,66.24 11.25,65.25 10.11,64.20 9.02,63.11 7.97,61.97 6.98,60.80 6.03,59.59 5.12,58.34 4.27,57.05 3.48,55.73 2.74,54.39 2.05,53.01 1.41,51.61 0.84,50.17 0.32,48.72 -0.13,47.25 -0.53,45.77 -0.88,44.26 -1.15,42.74 -1.37,41.22 -1.52,39.69 -1.62,38.15 -1.65,36.64"/>
    </edge>

    <junction id="bottom" type="priority" x="36.61" y="0.00" incLanes="left_0" intLanes="" shape="36.69,-0.05 36.75,-3.25 36.47,-3.25 36.53,-0.05">
        <request index="0" response="0" foes="0"/>
    </junction>
    <junction id="left" type="priority" x="0.00" y="36.61" incLanes="top_0" intLanes="" shape="-3.25,36.75 -0.05,36.69 -0.05,36.53 -3.25,36.47">
        <request index="0" response="0" foes="0"/>
    </junction>
    <junction id="right" type="priority" x="73.22" y="36.61" incLanes="bottom_0" intLanes="" shape="76.47,36.47 73.27,36.53 73.27,36.69 76.47,36.75">
        <request index="0" response="0" foes="0"/>
    </junction>
    <junction id="top" type="priority" x="36.61" y="73.22" incLanes="right_0" intLanes="" shape="36.75,76.47 36.69,73.27 36.53,73.27 36.47,76.47">
        <request index="0" response="0" foes="0"/>
    </junction>

    <connection from="bottom" to="right" fromLane="0" toLane="0" dir="s" state="M"/>
    <connection from="left" to="bottom" fromLane="0" toLane="0" dir="s" state="M"/>
    <connection from="right" to="top" fromLane="0" toLane="0" dir="s" state="M"/>
    <connection from="top" to="left" fromLane="0" toLane="0" dir="s" state="M"/>

</net>
