<?xml version="1.0" encoding="UTF-8"?>
<!--
Luxembourg SUMO Traffic (LuST) Scenario
This project is licensed under the terms of the MIT license.
Author: Lara CODECA [codeca@gmail.com]
-->

<routes xmlns:xsi="http://www.w3.org/2001/XMLSchema-instance" xsi:noNamespaceSchemaLocation="http://sumo.dlr.de/xsd/routes_file.xsd">
    <vehicle id="h21652c2:1" type="passenger1" depart="35619.00" departPos="random" departSpeed="0.00" arrivalPos="random" arrivalSpeed="0.00">
        <route edges="--31878#3 --31878#2 --31878#1 --31878#0 -30872#0 -30872#1 -30872#2 -30872#3 -32750#2 -32750#3 -32750#4 -32750#5 -32750#6 -32750#7 -32750#8 -32750#9 -32750#10 -32750#11 -32750#12 --30528#4 --30528#3 --30528#2 --30528#1 --30528#0 -31492#2 --32674#9 --32674#8 --32674#7 --32674#6 --32674#5 --32674#4"/>
    </vehicle>
</routes>
