<?xml version="1.0" encoding="UTF-8"?>
<nodes version="0.13" xmlns:xsi="http://www.w3.org/2001/XMLSchema-instance" xsi:noNamespaceSchemaLocation="http://sumo.sf.net/xsd/nodes_file.xsd">
	<node id="n0" x="31.83" y="0.0"/>
	<node id="n1" x="30.54" y="8.97"/>
	<node id="n2" x="26.78" y="17.21"/>
	<node id="n3" x="20.84" y="24.06"/>
	<node id="n4" x="13.22" y="28.95"/>
	<node id="n5" x="4.53" y="31.51"/>
	<node id="n6" x="-4.53" y="31.51"/>
	<node id="n7" x="-13.22" y="28.95"/>
	<node id="n8" x="-20.84" y="24.06"/>
	<node id="n9" x="-26.78" y="17.21"/>
	<node id="n10" x="-30.54" y="8.97"/>
	<node id="n11" x="-31.83" y="0.0"/>
	<node id="n12" x="-30.54" y="-8.97"/>
	<node id="n13" x="-26.78" y="-17.21"/>
	<node id="n14" x="-20.84" y="-24.06"/>
	<node id="n15" x="-13.22" y="-28.95"/>
	<node id="n16" x="-4.53" y="-31.51"/>
	<node id="n17" x="4.53" y="-31.51"/>
	<node id="n18" x="13.22" y="-28.95"/>
	<node id="n19" x="20.84" y="-24.06"/>
	<node id="n20" x="26.78" y="-17.21"/>
	<node id="n21" x="30.54" y="-8.97"/>
</nodes>