<?xml version="1.0" encoding="UTF-8"?>

<!-- generated on Thu Sep 29 16:18:27 2016 by SUMO netconvert Version 0.27.1
<?xml version="1.0" encoding="UTF-8"?>

<configuration xmlns:xsi="http://www.w3.org/2001/XMLSchema-instance" xsi:noNamespaceSchemaLocation="http://sumo.dlr.de/xsd/netconvertConfiguration.xsd">

    <input>
        <node-files value="circular200.nod.xml"/>
        <edge-files value="circular.edg.xml"/>
        <type-files value="circular.typ.xml"/>
    </input>

    <output>
        <output-file value="circular200.net.xml"/>
    </output>

    <processing>
        <no-internal-links value="true"/>
        <no-turnarounds value="true"/>
    </processing>

</configuration>
-->

<net version="0.27" xmlns:xsi="http://www.w3.org/2001/XMLSchema-instance" xsi:noNamespaceSchemaLocation="http://sumo.dlr.de/xsd/net_file.xsd">

    <location netOffset="31.83,31.51" convBoundary="0.00,0.00,63.66,63.02" origBoundary="-31.83,-31.51,31.83,31.51" projParameter="!"/>

    <type id="edgeType" numLanes="1" speed="15.00"/>

    <edge id="e0" from="n0" to="n1" priority="-1" type="edgeType">
        <lane id="e0_0" index="0" speed="15.00" length="9.06" shape="65.29,31.74 64.00,40.72"/>
    </edge>
    <edge id="e1" from="n1" to="n2" priority="-1" type="edgeType">
        <lane id="e1_0" index="0" speed="15.00" length="9.06" shape="63.87,41.16 60.11,49.41"/>
    </edge>
    <edge id="e10" from="n10" to="n11" priority="-1" type="edgeType">
        <lane id="e10_0" index="0" speed="15.00" length="9.06" shape="-0.34,40.72 -1.63,31.74"/>
    </edge>
    <edge id="e11" from="n11" to="n12" priority="-1" type="edgeType">
        <lane id="e11_0" index="0" speed="15.00" length="9.06" shape="-1.63,31.28 -0.34,22.30"/>
    </edge>
    <edge id="e12" from="n12" to="n13" priority="-1" type="edgeType">
        <lane id="e12_0" index="0" speed="15.00" length="9.06" shape="-0.21,21.86 3.55,13.61"/>
    </edge>
    <edge id="e13" from="n13" to="n14" priority="-1" type="edgeType">
        <lane id="e13_0" index="0" speed="15.00" length="9.07" shape="3.80,13.22 9.75,6.36"/>
    </edge>
    <edge id="e14" from="n14" to="n15" priority="-1" type="edgeType">
        <lane id="e14_0" index="0" speed="15.00" length="9.05" shape="10.09,6.07 17.72,1.17"/>
    </edge>
    <edge id="e15" from="n15" to="n16" priority="-1" type="edgeType">
        <lane id="e15_0" index="0" speed="15.00" length="9.06" shape="18.14,0.98 26.84,-1.58"/>
    </edge>
    <edge id="e16" from="n16" to="n17" priority="-1" type="edgeType">
        <lane id="e16_0" index="0" speed="15.00" length="9.06" shape="27.29,-1.65 36.37,-1.65"/>
    </edge>
    <edge id="e17" from="n17" to="n18" priority="-1" type="edgeType">
        <lane id="e17_0" index="0" speed="15.00" length="9.06" shape="36.82,-1.58 45.52,0.98"/>
    </edge>
    <edge id="e18" from="n18" to="n19" priority="-1" type="edgeType">
        <lane id="e18_0" index="0" speed="15.00" length="9.05" shape="45.94,1.17 53.57,6.07"/>
    </edge>
    <edge id="e19" from="n19" to="n20" priority="-1" type="edgeType">
        <lane id="e19_0" index="0" speed="15.00" length="9.07" shape="53.91,6.36 59.86,13.22"/>
    </edge>
    <edge id="e2" from="n2" to="n3" priority="-1" type="edgeType">
        <lane id="e2_0" index="0" speed="15.00" length="9.07" shape="59.86,49.80 53.91,56.66"/>
    </edge>
    <edge id="e20" from="n20" to="n21" priority="-1" type="edgeType">
        <lane id="e20_0" index="0" speed="15.00" length="9.06" shape="60.11,13.61 63.87,21.86"/>
    </edge>
    <edge id="e21" from="n21" to="n0" priority="-1" type="edgeType">
        <lane id="e21_0" index="0" speed="15.00" length="9.06" shape="64.00,22.30 65.29,31.28"/>
    </edge>
    <edge id="e3" from="n3" to="n4" priority="-1" type="edgeType">
        <lane id="e3_0" index="0" speed="15.00" length="9.05" shape="53.57,56.95 45.94,61.85"/>
    </edge>
    <edge id="e4" from="n4" to="n5" priority="-1" type="edgeType">
        <lane id="e4_0" index="0" speed="15.00" length="9.06" shape="45.52,62.04 36.82,64.60"/>
    </edge>
    <edge id="e5" from="n5" to="n6" priority="-1" type="edgeType">
        <lane id="e5_0" index="0" speed="15.00" length="9.06" shape="36.37,64.67 27.29,64.67"/>
    </edge>
    <edge id="e6" from="n6" to="n7" priority="-1" type="edgeType">
        <lane id="e6_0" index="0" speed="15.00" length="9.06" shape="26.84,64.60 18.14,62.04"/>
    </edge>
    <edge id="e7" from="n7" to="n8" priority="-1" type="edgeType">
        <lane id="e7_0" index="0" speed="15.00" length="9.05" shape="17.72,61.85 10.09,56.95"/>
    </edge>
    <edge id="e8" from="n8" to="n9" priority="-1" type="edgeType">
        <lane id="e8_0" index="0" speed="15.00" length="9.07" shape="9.75,56.66 3.80,49.80"/>
    </edge>
    <edge id="e9" from="n9" to="n10" priority="-1" type="edgeType">
        <lane id="e9_0" index="0" speed="15.00" length="9.06" shape="3.55,49.41 -0.21,41.16"/>
    </edge>

    <junction id="n0" type="priority" x="63.66" y="31.51" incLanes="e21_0" intLanes="" shape="66.88,31.05 63.71,31.51 66.88,31.97">
        <request index="0" response="0" foes="0"/>
    </junction>
    <junction id="n1" type="priority" x="62.37" y="40.48" incLanes="e0_0" intLanes="" shape="65.59,40.95 62.42,40.49 65.33,41.82">
        <request index="0" response="0" foes="0"/>
    </junction>
    <junction id="n10" type="priority" x="1.29" y="40.48" incLanes="e9_0" intLanes="" shape="-1.67,41.82 1.24,40.49 -1.93,40.95">
        <request index="0" response="0" foes="0"/>
    </junction>
    <junction id="n11" type="priority" x="0.00" y="31.51" incLanes="e10_0" intLanes="" shape="-3.22,31.97 -0.05,31.51 -3.22,31.05">
        <request index="0" response="0" foes="0"/>
    </junction>
    <junction id="n12" type="priority" x="1.29" y="22.54" incLanes="e11_0" intLanes="" shape="1.24,22.53 -1.67,21.20 -1.93,22.07 1.24,22.53">
        <request index="0" response="0" foes="0"/>
    </junction>
    <junction id="n13" type="priority" x="5.05" y="14.30" incLanes="e12_0" intLanes="" shape="5.01,14.27 2.59,12.18 2.10,12.94 5.01,14.27">
        <request index="0" response="0" foes="0"/>
    </junction>
    <junction id="n14" type="priority" x="10.99" y="7.45" incLanes="e13_0" intLanes="" shape="10.96,7.41 9.23,4.72 8.54,5.32 10.96,7.41">
        <request index="0" response="0" foes="0"/>
    </junction>
    <junction id="n15" type="priority" x="18.61" y="2.56" incLanes="e14_0" intLanes="" shape="18.59,2.51 17.68,-0.56 16.86,-0.18 18.59,2.51">
        <request index="0" response="0" foes="0"/>
    </junction>
    <junction id="n16" type="priority" x="27.30" y="0.00" incLanes="e15_0" intLanes="" shape="27.29,-0.05 27.29,-3.25 26.39,-3.12 27.29,-0.05">
        <request index="0" response="0" foes="0"/>
    </junction>
    <junction id="n17" type="priority" x="36.36" y="0.00" incLanes="e16_0" intLanes="" shape="36.37,-0.05 37.27,-3.12 36.37,-3.25 36.37,-0.05">
        <request index="0" response="0" foes="0"/>
    </junction>
    <junction id="n18" type="priority" x="45.05" y="2.56" incLanes="e17_0" intLanes="" shape="45.07,2.51 46.80,-0.18 45.98,-0.56 45.07,2.51">
        <request index="0" response="0" foes="0"/>
    </junction>
    <junction id="n19" type="priority" x="52.67" y="7.45" incLanes="e18_0" intLanes="" shape="52.70,7.41 55.12,5.32 54.43,4.72 52.70,7.41">
        <request index="0" response="0" foes="0"/>
    </junction>
    <junction id="n2" type="priority" x="58.61" y="48.72" incLanes="e1_0" intLanes="" shape="61.56,50.08 58.65,48.75 61.07,50.84">
        <request index="0" response="0" foes="0"/>
    </junction>
    <junction id="n20" type="priority" x="58.61" y="14.30" incLanes="e19_0" intLanes="" shape="58.65,14.27 61.56,12.94 61.07,12.18 58.65,14.27">
        <request index="0" response="0" foes="0"/>
    </junction>
    <junction id="n21" type="priority" x="62.37" y="22.54" incLanes="e20_0" intLanes="" shape="62.42,22.53 65.59,22.07 65.33,21.20 62.42,22.53">
        <request index="0" response="0" foes="0"/>
    </junction>
    <junction id="n3" type="priority" x="52.67" y="55.57" incLanes="e2_0" intLanes="" shape="55.12,57.70 52.70,55.61 54.43,58.30">
        <request index="0" response="0" foes="0"/>
    </junction>
    <junction id="n4" type="priority" x="45.05" y="60.46" incLanes="e3_0" intLanes="" shape="46.80,63.20 45.07,60.51 45.98,63.58">
        <request index="0" response="0" foes="0"/>
    </junction>
    <junction id="n5" type="priority" x="36.36" y="63.02" incLanes="e4_0" intLanes="" shape="37.27,66.14 36.37,63.07 36.37,66.27">
        <request index="0" response="0" foes="0"/>
    </junction>
    <junction id="n6" type="priority" x="27.30" y="63.02" incLanes="e5_0" intLanes="" shape="27.29,66.27 27.29,63.07 26.39,66.14">
        <request index="0" response="0" foes="0"/>
    </junction>
    <junction id="n7" type="priority" x="18.61" y="60.46" incLanes="e6_0" intLanes="" shape="17.68,63.58 18.59,60.51 16.86,63.20">
        <request index="0" response="0" foes="0"/>
    </junction>
    <junction id="n8" type="priority" x="10.99" y="55.57" incLanes="e7_0" intLanes="" shape="9.23,58.30 10.96,55.61 8.54,57.70">
        <request index="0" response="0" foes="0"/>
    </junction>
    <junction id="n9" type="priority" x="5.05" y="48.72" incLanes="e8_0" intLanes="" shape="2.59,50.84 5.01,48.75 2.10,50.08">
        <request index="0" response="0" foes="0"/>
    </junction>

    <connection from="e0" to="e1" fromLane="0" toLane="0" dir="s" state="M"/>
    <connection from="e1" to="e2" fromLane="0" toLane="0" dir="s" state="M"/>
    <connection from="e10" to="e11" fromLane="0" toLane="0" dir="s" state="M"/>
    <connection from="e11" to="e12" fromLane="0" toLane="0" dir="s" state="M"/>
    <connection from="e12" to="e13" fromLane="0" toLane="0" dir="s" state="M"/>
    <connection from="e13" to="e14" fromLane="0" toLane="0" dir="s" state="M"/>
    <connection from="e14" to="e15" fromLane="0" toLane="0" dir="s" state="M"/>
    <connection from="e15" to="e16" fromLane="0" toLane="0" dir="s" state="M"/>
    <connection from="e16" to="e17" fromLane="0" toLane="0" dir="s" state="M"/>
    <connection from="e17" to="e18" fromLane="0" toLane="0" dir="s" state="M"/>
    <connection from="e18" to="e19" fromLane="0" toLane="0" dir="s" state="M"/>
    <connection from="e19" to="e20" fromLane="0" toLane="0" dir="s" state="M"/>
    <connection from="e2" to="e3" fromLane="0" toLane="0" dir="s" state="M"/>
    <connection from="e20" to="e21" fromLane="0" toLane="0" dir="s" state="M"/>
    <connection from="e21" to="e0" fromLane="0" toLane="0" dir="s" state="M"/>
    <connection from="e3" to="e4" fromLane="0" toLane="0" dir="s" state="M"/>
    <connection from="e4" to="e5" fromLane="0" toLane="0" dir="s" state="M"/>
    <connection from="e5" to="e6" fromLane="0" toLane="0" dir="s" state="M"/>
    <connection from="e6" to="e7" fromLane="0" toLane="0" dir="s" state="M"/>
    <connection from="e7" to="e8" fromLane="0" toLane="0" dir="s" state="M"/>
    <connection from="e8" to="e9" fromLane="0" toLane="0" dir="s" state="M"/>
    <connection from="e9" to="e10" fromLane="0" toLane="0" dir="s" state="M"/>

</net>
