<?xml version="1.0" encoding="UTF-8"?>

<!-- generated on Thu Sep 29 16:22:36 2016 by SUMO netconvert Version 0.27.1
<?xml version="1.0" encoding="UTF-8"?>

<configuration xmlns:xsi="http://www.w3.org/2001/XMLSchema-instance" xsi:noNamespaceSchemaLocation="http://sumo.dlr.de/xsd/netconvertConfiguration.xsd">

    <input>
        <node-files value="circular300.nod.xml"/>
        <edge-files value="circular.edg.xml"/>
        <type-files value="circular.typ.xml"/>
    </input>

    <output>
        <output-file value="circular300.net.xml"/>
    </output>

    <processing>
        <no-internal-links value="true"/>
        <no-turnarounds value="true"/>
    </processing>

</configuration>
-->

<net version="0.27" xmlns:xsi="http://www.w3.org/2001/XMLSchema-instance" xsi:noNamespaceSchemaLocation="http://sumo.dlr.de/xsd/net_file.xsd">

    <location netOffset="47.75,47.26" convBoundary="0.00,0.00,95.50,94.52" origBoundary="-47.75,-47.26,47.75,47.26" projParameter="!"/>

    <type id="edgeType" numLanes="1" speed="35.00"/>

    <edge id="e0" from="n0" to="n1" priority="-1" type="edgeType">
        <lane id="e0_0" index="0" speed="35.00" length="13.59" shape="97.13,47.49 95.19,60.95"/>
    </edge>
    <edge id="e1" from="n1" to="n2" priority="-1" type="edgeType">
        <lane id="e1_0" index="0" speed="35.00" length="13.59" shape="95.06,61.39 89.42,73.76"/>
    </edge>
    <edge id="e10" from="n10" to="n11" priority="-1" type="edgeType">
        <lane id="e10_0" index="0" speed="35.00" length="13.59" shape="0.31,60.95 -1.63,47.49"/>
    </edge>
    <edge id="e11" from="n11" to="n12" priority="-1" type="edgeType">
        <lane id="e11_0" index="0" speed="35.00" length="13.59" shape="-1.63,47.03 0.31,33.57"/>
    </edge>
    <edge id="e12" from="n12" to="n13" priority="-1" type="edgeType">
        <lane id="e12_0" index="0" speed="35.00" length="13.59" shape="0.44,33.13 6.08,20.76"/>
    </edge>
    <edge id="e13" from="n13" to="n14" priority="-1" type="edgeType">
        <lane id="e13_0" index="0" speed="35.00" length="13.59" shape="6.33,20.37 15.24,10.09"/>
    </edge>
    <edge id="e14" from="n14" to="n15" priority="-1" type="edgeType">
        <lane id="e14_0" index="0" speed="35.00" length="13.60" shape="15.58,9.80 27.03,2.44"/>
    </edge>
    <edge id="e15" from="n15" to="n16" priority="-1" type="edgeType">
        <lane id="e15_0" index="0" speed="35.00" length="13.58" shape="27.45,2.25 40.49,-1.59"/>
    </edge>
    <edge id="e16" from="n16" to="n17" priority="-1" type="edgeType">
        <lane id="e16_0" index="0" speed="35.00" length="13.60" shape="40.94,-1.65 54.56,-1.65"/>
    </edge>
    <edge id="e17" from="n17" to="n18" priority="-1" type="edgeType">
        <lane id="e17_0" index="0" speed="35.00" length="13.58" shape="55.01,-1.59 68.05,2.25"/>
    </edge>
    <edge id="e18" from="n18" to="n19" priority="-1" type="edgeType">
        <lane id="e18_0" index="0" speed="35.00" length="13.60" shape="68.47,2.44 79.92,9.80"/>
    </edge>
    <edge id="e19" from="n19" to="n20" priority="-1" type="edgeType">
        <lane id="e19_0" index="0" speed="35.00" length="13.59" shape="80.26,10.09 89.17,20.37"/>
    </edge>
    <edge id="e2" from="n2" to="n3" priority="-1" type="edgeType">
        <lane id="e2_0" index="0" speed="35.00" length="13.59" shape="89.17,74.15 80.26,84.43"/>
    </edge>
    <edge id="e20" from="n20" to="n21" priority="-1" type="edgeType">
        <lane id="e20_0" index="0" speed="35.00" length="13.59" shape="89.42,20.76 95.06,33.13"/>
    </edge>
    <edge id="e21" from="n21" to="n0" priority="-1" type="edgeType">
        <lane id="e21_0" index="0" speed="35.00" length="13.59" shape="95.19,33.57 97.13,47.03"/>
    </edge>
    <edge id="e3" from="n3" to="n4" priority="-1" type="edgeType">
        <lane id="e3_0" index="0" speed="35.00" length="13.60" shape="79.92,84.72 68.47,92.08"/>
    </edge>
    <edge id="e4" from="n4" to="n5" priority="-1" type="edgeType">
        <lane id="e4_0" index="0" speed="35.00" length="13.58" shape="68.05,92.27 55.01,96.11"/>
    </edge>
    <edge id="e5" from="n5" to="n6" priority="-1" type="edgeType">
        <lane id="e5_0" index="0" speed="35.00" length="13.60" shape="54.56,96.17 40.94,96.17"/>
    </edge>
    <edge id="e6" from="n6" to="n7" priority="-1" type="edgeType">
        <lane id="e6_0" index="0" speed="35.00" length="13.58" shape="40.49,96.11 27.45,92.27"/>
    </edge>
    <edge id="e7" from="n7" to="n8" priority="-1" type="edgeType">
        <lane id="e7_0" index="0" speed="35.00" length="13.60" shape="27.03,92.08 15.58,84.72"/>
    </edge>
    <edge id="e8" from="n8" to="n9" priority="-1" type="edgeType">
        <lane id="e8_0" index="0" speed="35.00" length="13.59" shape="15.24,84.43 6.33,74.15"/>
    </edge>
    <edge id="e9" from="n9" to="n10" priority="-1" type="edgeType">
        <lane id="e9_0" index="0" speed="35.00" length="13.59" shape="6.08,73.76 0.44,61.39"/>
    </edge>

    <junction id="n0" type="priority" x="95.50" y="47.26" incLanes="e21_0" intLanes="" shape="98.72,46.80 95.55,47.26 98.72,47.72">
        <request index="0" response="0" foes="0"/>
    </junction>
    <junction id="n1" type="priority" x="93.56" y="60.71" incLanes="e0_0" intLanes="" shape="96.78,61.18 93.61,60.72 96.52,62.05">
        <request index="0" response="0" foes="0"/>
    </junction>
    <junction id="n10" type="priority" x="1.94" y="60.71" incLanes="e9_0" intLanes="" shape="-1.02,62.05 1.89,60.72 -1.28,61.18">
        <request index="0" response="0" foes="0"/>
    </junction>
    <junction id="n11" type="priority" x="0.00" y="47.26" incLanes="e10_0" intLanes="" shape="-3.22,47.72 -0.05,47.26 -3.22,46.80">
        <request index="0" response="0" foes="0"/>
    </junction>
    <junction id="n12" type="priority" x="1.94" y="33.81" incLanes="e11_0" intLanes="" shape="1.89,33.80 -1.02,32.47 -1.28,33.34 1.89,33.80">
        <request index="0" response="0" foes="0"/>
    </junction>
    <junction id="n13" type="priority" x="7.58" y="21.45" incLanes="e12_0" intLanes="" shape="7.54,21.42 5.12,19.33 4.63,20.09 7.54,21.42">
        <request index="0" response="0" foes="0"/>
    </junction>
    <junction id="n14" type="priority" x="16.48" y="11.18" incLanes="e13_0" intLanes="" shape="16.45,11.14 14.72,8.45 14.03,9.05 16.45,11.14">
        <request index="0" response="0" foes="0"/>
    </junction>
    <junction id="n15" type="priority" x="27.92" y="3.83" incLanes="e14_0" intLanes="" shape="27.90,3.78 27.00,0.71 26.17,1.09 27.90,3.78">
        <request index="0" response="0" foes="0"/>
    </junction>
    <junction id="n16" type="priority" x="40.95" y="0.00" incLanes="e15_0" intLanes="" shape="40.94,-0.05 40.94,-3.25 40.04,-3.12 40.94,-0.05">
        <request index="0" response="0" foes="0"/>
    </junction>
    <junction id="n17" type="priority" x="54.55" y="0.00" incLanes="e16_0" intLanes="" shape="54.56,-0.05 55.46,-3.12 54.56,-3.25 54.56,-0.05">
        <request index="0" response="0" foes="0"/>
    </junction>
    <junction id="n18" type="priority" x="67.58" y="3.83" incLanes="e17_0" intLanes="" shape="67.60,3.78 69.33,1.09 68.50,0.71 67.60,3.78">
        <request index="0" response="0" foes="0"/>
    </junction>
    <junction id="n19" type="priority" x="79.02" y="11.18" incLanes="e18_0" intLanes="" shape="79.05,11.14 81.47,9.05 80.78,8.45 79.05,11.14">
        <request index="0" response="0" foes="0"/>
    </junction>
    <junction id="n2" type="priority" x="87.92" y="73.07" incLanes="e1_0" intLanes="" shape="90.87,74.43 87.96,73.10 90.38,75.19">
        <request index="0" response="0" foes="0"/>
    </junction>
    <junction id="n20" type="priority" x="87.92" y="21.45" incLanes="e19_0" intLanes="" shape="87.96,21.42 90.87,20.09 90.38,19.33 87.96,21.42">
        <request index="0" response="0" foes="0"/>
    </junction>
    <junction id="n21" type="priority" x="93.56" y="33.81" incLanes="e20_0" intLanes="" shape="93.61,33.80 96.78,33.34 96.52,32.47 93.61,33.80">
        <request index="0" response="0" foes="0"/>
    </junction>
    <junction id="n3" type="priority" x="79.02" y="83.34" incLanes="e2_0" intLanes="" shape="81.47,85.47 79.05,83.38 80.78,86.07">
        <request index="0" response="0" foes="0"/>
    </junction>
    <junction id="n4" type="priority" x="67.58" y="90.69" incLanes="e3_0" intLanes="" shape="69.33,93.43 67.60,90.74 68.50,93.81">
        <request index="0" response="0" foes="0"/>
    </junction>
    <junction id="n5" type="priority" x="54.55" y="94.52" incLanes="e4_0" intLanes="" shape="55.46,97.64 54.56,94.57 54.56,97.77">
        <request index="0" response="0" foes="0"/>
    </junction>
    <junction id="n6" type="priority" x="40.95" y="94.52" incLanes="e5_0" intLanes="" shape="40.94,97.77 40.94,94.57 40.04,97.64">
        <request index="0" response="0" foes="0"/>
    </junction>
    <junction id="n7" type="priority" x="27.92" y="90.69" incLanes="e6_0" intLanes="" shape="27.00,93.81 27.90,90.74 26.17,93.43">
        <request index="0" response="0" foes="0"/>
    </junction>
    <junction id="n8" type="priority" x="16.48" y="83.34" incLanes="e7_0" intLanes="" shape="14.72,86.07 16.45,83.38 14.03,85.47">
        <request index="0" response="0" foes="0"/>
    </junction>
    <junction id="n9" type="priority" x="7.58" y="73.07" incLanes="e8_0" intLanes="" shape="5.12,75.19 7.54,73.10 4.63,74.43">
        <request index="0" response="0" foes="0"/>
    </junction>

    <connection from="e0" to="e1" fromLane="0" toLane="0" dir="s" state="M"/>
    <connection from="e1" to="e2" fromLane="0" toLane="0" dir="s" state="M"/>
    <connection from="e10" to="e11" fromLane="0" toLane="0" dir="s" state="M"/>
    <connection from="e11" to="e12" fromLane="0" toLane="0" dir="s" state="M"/>
    <connection from="e12" to="e13" fromLane="0" toLane="0" dir="s" state="M"/>
    <connection from="e13" to="e14" fromLane="0" toLane="0" dir="s" state="M"/>
    <connection from="e14" to="e15" fromLane="0" toLane="0" dir="s" state="M"/>
    <connection from="e15" to="e16" fromLane="0" toLane="0" dir="s" state="M"/>
    <connection from="e16" to="e17" fromLane="0" toLane="0" dir="s" state="M"/>
    <connection from="e17" to="e18" fromLane="0" toLane="0" dir="s" state="M"/>
    <connection from="e18" to="e19" fromLane="0" toLane="0" dir="s" state="M"/>
    <connection from="e19" to="e20" fromLane="0" toLane="0" dir="s" state="M"/>
    <connection from="e2" to="e3" fromLane="0" toLane="0" dir="s" state="M"/>
    <connection from="e20" to="e21" fromLane="0" toLane="0" dir="s" state="M"/>
    <connection from="e21" to="e0" fromLane="0" toLane="0" dir="s" state="M"/>
    <connection from="e3" to="e4" fromLane="0" toLane="0" dir="s" state="M"/>
    <connection from="e4" to="e5" fromLane="0" toLane="0" dir="s" state="M"/>
    <connection from="e5" to="e6" fromLane="0" toLane="0" dir="s" state="M"/>
    <connection from="e6" to="e7" fromLane="0" toLane="0" dir="s" state="M"/>
    <connection from="e7" to="e8" fromLane="0" toLane="0" dir="s" state="M"/>
    <connection from="e8" to="e9" fromLane="0" toLane="0" dir="s" state="M"/>
    <connection from="e9" to="e10" fromLane="0" toLane="0" dir="s" state="M"/>

</net>
