<?xml version='1.0' encoding='UTF-8'?>
<edges xmlns:xsi="http://www.w3.org/2001/XMLSchema-instance" xsi:noNamespaceSchemaLocation="http://sumo.dlr.de/xsd/edges_file.xsd">
  <edge from="bottom" id="bottom" length="210.0" shape="0.00,-267.38 10.77,-267.16 21.52,-266.51 32.23,-265.43 42.89,-263.92 53.48,-261.98 63.99,-259.61 74.39,-256.82 84.67,-253.62 94.81,-250.00 104.80,-245.98 114.62,-241.56 124.26,-236.75 133.69,-231.56 142.91,-225.99 151.89,-220.05 160.63,-213.76 169.10,-207.11 177.31,-200.14 185.22,-192.84 192.84,-185.22 200.14,-177.31 207.11,-169.10 213.76,-160.63 220.05,-151.89 225.99,-142.91 231.56,-133.69 236.75,-124.26 241.56,-114.62 245.98,-104.80 250.00,-94.81 253.62,-84.67 256.82,-74.39 259.61,-63.99 261.98,-53.48 263.92,-42.89 265.43,-32.23 266.51,-21.52 267.16,-10.77 267.38,0.00" to="right" type="edgeType"/>
  <edge from="right" id="right" length="210.0" shape="267.38,0.00 267.16,10.77 266.51,21.52 265.43,32.23 263.92,42.89 261.98,53.48 259.61,63.99 256.82,74.39 253.62,84.67 250.00,94.81 245.98,104.80 241.56,114.62 236.75,124.26 231.56,133.69 225.99,142.91 220.05,151.89 213.76,160.63 207.11,169.10 200.14,177.31 192.84,185.22 185.22,192.84 177.31,200.14 169.10,207.11 160.63,213.76 151.89,220.05 142.91,225.99 133.69,231.56 124.26,236.75 114.62,241.56 104.80,245.98 94.81,250.00 84.67,253.62 74.39,256.82 63.99,259.61 53.48,261.98 42.89,263.92 32.23,265.43 21.52,266.51 10.77,267.16 0.00,267.38" to="top" type="edgeType"/>
  <edge from="top" id="top" length="210.0" shape="0.00,267.38 -10.77,267.16 -21.52,266.51 -32.23,265.43 -42.89,263.92 -53.48,261.98 -63.99,259.61 -74.39,256.82 -84.67,253.62 -94.81,250.00 -104.80,245.98 -114.62,241.56 -124.26,236.75 -133.69,231.56 -142.91,225.99 -151.89,220.05 -160.63,213.76 -169.10,207.11 -177.31,200.14 -185.22,192.84 -192.84,185.22 -200.14,177.31 -207.11,169.10 -213.76,160.63 -220.05,151.89 -225.99,142.91 -231.56,133.69 -236.75,124.26 -241.56,114.62 -245.98,104.80 -250.00,94.81 -253.62,84.67 -256.82,74.39 -259.61,63.99 -261.98,53.48 -263.92,42.89 -265.43,32.23 -266.51,21.52 -267.16,10.77 -267.38,0.00" to="left" type="edgeType"/>
  <edge from="left" id="left" length="210.0" shape="-267.38,0.00 -267.16,-10.77 -266.51,-21.52 -265.43,-32.23 -263.92,-42.89 -261.98,-53.48 -259.61,-63.99 -256.82,-74.39 -253.62,-84.67 -250.00,-94.81 -245.98,-104.80 -241.56,-114.62 -236.75,-124.26 -231.56,-133.69 -225.99,-142.91 -220.05,-151.89 -213.76,-160.63 -207.11,-169.10 -200.14,-177.31 -192.84,-185.22 -185.22,-192.84 -177.31,-200.14 -169.10,-207.11 -160.63,-213.76 -151.89,-220.05 -142.91,-225.99 -133.69,-231.56 -124.26,-236.75 -114.62,-241.56 -104.80,-245.98 -94.81,-250.00 -84.67,-253.62 -74.39,-256.82 -63.99,-259.61 -53.48,-261.98 -42.89,-263.92 -32.23,-265.43 -21.52,-266.51 -10.77,-267.16 -0.00,-267.38" to="bottom" type="edgeType"/>
</edges>
