<?xml version="1.0" encoding="UTF-8"?>

<!-- generated on Wed Nov 23 15:38:03 2016 by SUMO netconvert Version 0.27.1
<?xml version="1.0" encoding="UTF-8"?>

<configuration xmlns:xsi="http://www.w3.org/2001/XMLSchema-instance" xsi:noNamespaceSchemaLocation="http://sumo.dlr.de/xsd/netconvertConfiguration.xsd">

    <input>
        <node-files value="net/loopsim-840m2l-840m2l.nod.xml"/>
        <edge-files value="net/loopsim-840m2l-840m2l.edg.xml"/>
        <type-files value="net/loopsim-840m2l-840m2l.typ.xml"/>
    </input>

    <output>
        <output-file value="net/loopsim-840m2l-840m2l.net.xml"/>
    </output>

    <processing>
        <no-internal-links value="true"/>
        <no-turnarounds value="true"/>
    </processing>

</configuration>
-->

<net version="0.27" xmlns:xsi="http://www.w3.org/2001/XMLSchema-instance" xsi:noNamespaceSchemaLocation="http://sumo.dlr.de/xsd/net_file.xsd">

    <location netOffset="267.38,267.38" convBoundary="0.00,0.00,534.76,534.76" origBoundary="-267.38,-267.38,267.38,267.38" projParameter="!"/>

    <type id="edgeType" numLanes="2" speed="35.00"/>

    <edge id="bottom" from="bottom" to="right" priority="-1" type="edgeType" length="210.00" shape="267.38,0.00 278.15,0.22 288.90,0.87 299.61,1.95 310.27,3.46 320.86,5.40 331.37,7.77 341.77,10.56 352.05,13.76 362.19,17.38 372.18,21.40 382.00,25.82 391.64,30.63 401.07,35.82 410.29,41.39 419.27,47.33 428.01,53.62 436.48,60.27 444.69,67.24 452.60,74.54 460.22,82.16 467.52,90.07 474.49,98.28 481.14,106.75 487.43,115.49 493.37,124.47 498.94,133.69 504.13,143.12 508.94,152.76 513.36,162.58 517.38,172.57 521.00,182.71 524.20,192.99 526.99,203.39 529.36,213.90 531.30,224.49 532.81,235.15 533.89,245.86 534.54,256.61 534.76,267.38">
        <lane id="bottom_0" index="0" speed="35.00" length="210.00" shape="267.43,-4.95 278.35,-4.73 289.30,-4.06 300.21,-2.96 311.06,-1.43 321.85,0.55 332.56,2.96 343.15,5.80 353.62,9.06 363.95,12.75 374.12,16.85 384.12,21.35 393.94,26.25 403.54,31.53 412.94,37.21 422.08,43.26 430.99,49.66 439.61,56.44 447.97,63.53 456.03,70.97 463.79,78.73 471.23,86.79 478.33,95.15 485.10,103.77 491.51,112.68 497.55,121.82 503.23,131.22 508.52,140.82 513.41,150.64 517.92,160.64 522.01,170.81 525.70,181.14 528.96,191.61 531.80,202.20 534.21,212.91 536.19,223.70 537.73,234.55 538.83,245.46 539.49,256.41 539.71,267.37"/>
        <lane id="bottom_1" index="1" speed="35.00" length="210.00" shape="267.41,-1.65 278.22,-1.43 289.03,-0.77 299.81,0.31 310.53,1.83 321.19,3.78 331.77,6.17 342.23,8.98 352.57,12.19 362.78,15.84 372.83,19.88 382.71,24.33 392.41,29.17 401.90,34.39 411.17,40.00 420.21,45.97 429.00,52.30 437.52,58.99 445.78,66.00 453.74,73.35 461.41,81.02 468.76,88.98 475.77,97.24 482.46,105.76 488.79,114.55 494.77,123.59 500.37,132.87 505.59,142.35 510.43,152.05 514.88,161.93 518.92,171.98 522.57,182.19 525.79,192.53 528.59,202.99 530.98,213.57 532.93,224.23 534.45,234.95 535.54,245.73 536.19,256.54 536.41,267.35"/>
    </edge>
    <edge id="left" from="left" to="bottom" priority="-1" type="edgeType" length="210.00" shape="0.00,267.38 0.22,256.61 0.87,245.86 1.95,235.15 3.46,224.49 5.40,213.90 7.77,203.39 10.56,192.99 13.76,182.71 17.38,172.57 21.40,162.58 25.82,152.76 30.63,143.12 35.82,133.69 41.39,124.47 47.33,115.49 53.62,106.75 60.27,98.28 67.24,90.07 74.54,82.16 82.16,74.54 90.07,67.24 98.28,60.27 106.75,53.62 115.49,47.33 124.47,41.39 133.69,35.82 143.12,30.63 152.76,25.82 162.58,21.40 172.57,17.38 182.71,13.76 192.99,10.56 203.39,7.77 213.90,5.40 224.49,3.46 235.15,1.95 245.86,0.87 256.61,0.22 267.38,0.00">
        <lane id="left_0" index="0" speed="35.00" length="210.00" shape="-4.95,267.37 -4.73,256.41 -4.06,245.46 -2.96,234.55 -1.43,223.70 0.55,212.91 2.96,202.20 5.80,191.61 9.06,181.14 12.75,170.81 16.85,160.64 21.35,150.64 26.25,140.82 31.53,131.22 37.21,121.82 43.26,112.68 49.66,103.77 56.44,95.15 63.53,86.79 70.97,78.73 78.73,70.97 86.79,63.53 95.15,56.44 103.77,49.66 112.68,43.26 121.82,37.21 131.22,31.53 140.82,26.25 150.64,21.35 160.64,16.85 170.81,12.75 181.14,9.06 191.61,5.80 202.20,2.96 212.91,0.55 223.70,-1.43 234.55,-2.96 245.46,-4.06 256.41,-4.73 267.37,-4.95"/>
        <lane id="left_1" index="1" speed="35.00" length="210.00" shape="-1.65,267.35 -1.43,256.54 -0.77,245.73 0.31,234.95 1.83,224.23 3.78,213.57 6.17,202.99 8.98,192.53 12.19,182.19 15.84,171.98 19.88,161.93 24.33,152.05 29.17,142.35 34.39,132.87 40.00,123.59 45.97,114.55 52.30,105.76 58.99,97.24 66.00,88.98 73.35,81.02 81.02,73.35 88.98,66.00 97.24,58.99 105.76,52.30 114.55,45.97 123.59,40.00 132.87,34.39 142.35,29.17 152.05,24.33 161.93,19.88 171.98,15.84 182.19,12.19 192.53,8.98 202.99,6.17 213.57,3.78 224.23,1.83 234.95,0.31 245.73,-0.77 256.54,-1.43 267.35,-1.65"/>
    </edge>
    <edge id="right" from="right" to="top" priority="-1" type="edgeType" length="210.00" shape="534.76,267.38 534.54,278.15 533.89,288.90 532.81,299.61 531.30,310.27 529.36,320.86 526.99,331.37 524.20,341.77 521.00,352.05 517.38,362.19 513.36,372.18 508.94,382.00 504.13,391.64 498.94,401.07 493.37,410.29 487.43,419.27 481.14,428.01 474.49,436.48 467.52,444.69 460.22,452.60 452.60,460.22 444.69,467.52 436.48,474.49 428.01,481.14 419.27,487.43 410.29,493.37 401.07,498.94 391.64,504.13 382.00,508.94 372.18,513.36 362.19,517.38 352.05,521.00 341.77,524.20 331.37,526.99 320.86,529.36 310.27,531.30 299.61,532.81 288.90,533.89 278.15,534.54 267.38,534.76">
        <lane id="right_0" index="0" speed="35.00" length="210.00" shape="539.71,267.39 539.49,278.35 538.83,289.30 537.73,300.21 536.19,311.06 534.21,321.85 531.80,332.56 528.96,343.15 525.70,353.62 522.01,363.95 517.92,374.12 513.41,384.12 508.52,393.94 503.23,403.54 497.55,412.94 491.51,422.08 485.10,430.99 478.33,439.61 471.23,447.97 463.79,456.03 456.03,463.79 447.97,471.23 439.61,478.33 430.99,485.10 422.08,491.51 412.94,497.55 403.54,503.23 393.94,508.52 384.12,513.41 374.12,517.92 363.95,522.01 353.62,525.70 343.15,528.96 332.56,531.80 321.85,534.21 311.06,536.19 300.21,537.73 289.30,538.83 278.35,539.49 267.39,539.71"/>
        <lane id="right_1" index="1" speed="35.00" length="210.00" shape="536.41,267.41 536.19,278.22 535.54,289.03 534.45,299.81 532.93,310.53 530.98,321.19 528.59,331.77 525.79,342.23 522.57,352.57 518.92,362.78 514.88,372.83 510.43,382.71 505.59,392.41 500.37,401.90 494.77,411.17 488.79,420.21 482.46,429.00 475.77,437.52 468.76,445.78 461.41,453.74 453.74,461.41 445.78,468.76 437.52,475.77 429.00,482.46 420.21,488.79 411.17,494.77 401.90,500.37 392.41,505.59 382.71,510.43 372.83,514.88 362.78,518.92 352.57,522.57 342.23,525.79 331.77,528.59 321.19,530.98 310.53,532.93 299.81,534.45 289.03,535.54 278.22,536.19 267.41,536.41"/>
    </edge>
    <edge id="top" from="top" to="left" priority="-1" type="edgeType" length="210.00" shape="267.38,534.76 256.61,534.54 245.86,533.89 235.15,532.81 224.49,531.30 213.90,529.36 203.39,526.99 192.99,524.20 182.71,521.00 172.57,517.38 162.58,513.36 152.76,508.94 143.12,504.13 133.69,498.94 124.47,493.37 115.49,487.43 106.75,481.14 98.28,474.49 90.07,467.52 82.16,460.22 74.54,452.60 67.24,444.69 60.27,436.48 53.62,428.01 47.33,419.27 41.39,410.29 35.82,401.07 30.63,391.64 25.82,382.00 21.40,372.18 17.38,362.19 13.76,352.05 10.56,341.77 7.77,331.37 5.40,320.86 3.46,310.27 1.95,299.61 0.87,288.90 0.22,278.15 0.00,267.38">
        <lane id="top_0" index="0" speed="35.00" length="210.00" shape="267.37,539.71 256.41,539.49 245.46,538.83 234.55,537.73 223.70,536.19 212.91,534.21 202.20,531.80 191.61,528.96 181.14,525.70 170.81,522.01 160.64,517.92 150.64,513.41 140.82,508.52 131.22,503.23 121.82,497.55 112.68,491.51 103.77,485.10 95.15,478.33 86.79,471.23 78.73,463.79 70.97,456.03 63.53,447.97 56.44,439.61 49.66,430.99 43.26,422.08 37.21,412.94 31.53,403.54 26.25,393.94 21.35,384.12 16.85,374.12 12.75,363.95 9.06,353.62 5.80,343.15 2.96,332.56 0.55,321.85 -1.43,311.06 -2.96,300.21 -4.06,289.30 -4.73,278.35 -4.95,267.39"/>
        <lane id="top_1" index="1" speed="35.00" length="210.00" shape="267.35,536.41 256.54,536.19 245.73,535.54 234.95,534.45 224.23,532.93 213.57,530.98 202.99,528.59 192.53,525.79 182.19,522.57 171.98,518.92 161.93,514.88 152.05,510.43 142.35,505.59 132.87,500.37 123.59,494.77 114.55,488.79 105.76,482.46 97.24,475.77 88.98,468.76 81.02,461.41 73.35,453.74 66.00,445.78 58.99,437.52 52.30,429.00 45.97,420.21 40.00,411.17 34.39,401.90 29.17,392.41 24.33,382.71 19.88,372.83 15.84,362.78 12.19,352.57 8.98,342.23 6.17,331.77 3.78,321.19 1.83,310.53 0.31,299.81 -0.77,289.03 -1.43,278.22 -1.65,267.41"/>
    </edge>

    <junction id="bottom" type="priority" x="267.38" y="0.00" incLanes="left_0 left_1" intLanes="" shape="267.27,-0.05 267.41,-6.55 267.49,-0.05">
        <request index="0" response="00" foes="00"/>
        <request index="1" response="00" foes="00"/>
    </junction>
    <junction id="left" type="priority" x="0.00" y="267.38" incLanes="top_0 top_1" intLanes="" shape="-6.55,267.41 -0.05,267.27 -0.05,267.49 -6.55,267.36">
        <request index="0" response="00" foes="00"/>
        <request index="1" response="00" foes="00"/>
    </junction>
    <junction id="right" type="priority" x="534.76" y="267.38" incLanes="bottom_0 bottom_1" intLanes="" shape="541.31,267.36 534.81,267.49 534.81,267.27 541.31,267.41">
        <request index="0" response="00" foes="00"/>
        <request index="1" response="00" foes="00"/>
    </junction>
    <junction id="top" type="priority" x="267.38" y="534.76" incLanes="right_0 right_1" intLanes="" shape="267.41,541.31 267.27,534.81 267.49,534.81 267.36,541.31">
        <request index="0" response="00" foes="00"/>
        <request index="1" response="00" foes="00"/>
    </junction>

    <connection from="bottom" to="right" fromLane="0" toLane="0" dir="s" state="M"/>
    <connection from="bottom" to="right" fromLane="1" toLane="1" dir="s" state="M"/>
    <connection from="left" to="bottom" fromLane="0" toLane="0" dir="s" state="M"/>
    <connection from="left" to="bottom" fromLane="1" toLane="1" dir="s" state="M"/>
    <connection from="right" to="top" fromLane="0" toLane="0" dir="s" state="M"/>
    <connection from="right" to="top" fromLane="1" toLane="1" dir="s" state="M"/>
    <connection from="top" to="left" fromLane="0" toLane="0" dir="s" state="M"/>
    <connection from="top" to="left" fromLane="1" toLane="1" dir="s" state="M"/>

</net>
