<?xml version="1.0" encoding="UTF-8"?>

<!-- generated on 3/8/2020 4:47:52 PM by Netedit Version 0.32.0
<?xml version="1.0" encoding="UTF-8"?>

<configuration xmlns:xsi="http://www.w3.org/2001/XMLSchema-instance" xsi:noNamespaceSchemaLocation="http://sumo.dlr.de/xsd/netconvertConfiguration.xsd">

    <input>
        <sumo-net-file value="C:\Users\barbouww\Downloads\i24.net.xml"/>
    </input>

    <output>
        <output-file value="H:\I24_topography\i24_trim.net.xml"/>
    </output>

    <processing>
        <no-turnarounds value="true"/>
        <offset.disable-normalization value="true"/>
        <lefthand value="false"/>
        <junctions.corner-detail value="0"/>
        <rectangular-lane-cut value="false"/>
        <walkingareas value="false"/>
    </processing>

</configuration>
-->

<net version="0.27" xmlns:xsi="http://www.w3.org/2001/XMLSchema-instance" xsi:noNamespaceSchemaLocation="http://sumo.dlr.de/xsd/net_file.xsd">

    <location netOffset="-523953.70,-3968336.93" convBoundary="2925.77,3890.66,22461.10,24784.71" origBoundary="-86.734568,35.858761,-86.485704,36.081923" projParameter="+proj=utm +zone=16 +ellps=WGS84 +datum=WGS84 +units=m +no_defs"/>

    <type id="highway.bridleway" priority="1" numLanes="1" speed="2.78" allow="pedestrian" oneway="1" width="2.00"/>
    <type id="highway.bus_guideway" priority="1" numLanes="1" speed="8.33" allow="bus" oneway="1"/>
    <type id="highway.cycleway" priority="1" numLanes="1" speed="5.56" allow="bicycle" oneway="0" width="1.00"/>
    <type id="highway.footway" priority="1" numLanes="1" speed="2.78" allow="pedestrian" oneway="1" width="2.00"/>
    <type id="highway.ford" priority="1" numLanes="1" speed="2.78" allow="army" oneway="0"/>
    <type id="highway.living_street" priority="3" numLanes="1" speed="2.78" disallow="tram rail_urban rail rail_electric ship" oneway="0"/>
    <type id="highway.motorway" priority="13" numLanes="2" speed="44.44" allow="private emergency authority army vip passenger hov taxi bus coach delivery truck trailer motorcycle evehicle custom1 custom2" oneway="1"/>
    <type id="highway.motorway_link" priority="12" numLanes="1" speed="22.22" allow="private emergency authority army vip passenger hov taxi bus coach delivery truck trailer motorcycle evehicle custom1 custom2" oneway="1"/>
    <type id="highway.path" priority="1" numLanes="1" speed="2.78" allow="bicycle pedestrian" oneway="1" width="2.00"/>
    <type id="highway.pedestrian" priority="1" numLanes="1" speed="2.78" allow="pedestrian" oneway="1" width="2.00"/>
    <type id="highway.primary" priority="9" numLanes="2" speed="27.78" disallow="tram rail_urban rail rail_electric ship" oneway="0"/>
    <type id="highway.primary_link" priority="8" numLanes="1" speed="22.22" disallow="tram rail_urban rail rail_electric ship" oneway="0"/>
    <type id="highway.raceway" priority="14" numLanes="2" speed="83.33" allow="vip" oneway="0"/>
    <type id="highway.residential" priority="4" numLanes="1" speed="13.89" disallow="tram rail_urban rail rail_electric ship" oneway="0"/>
    <type id="highway.secondary" priority="7" numLanes="2" speed="27.78" disallow="tram rail_urban rail rail_electric ship" oneway="0"/>
    <type id="highway.secondary_link" priority="6" numLanes="1" speed="22.22" disallow="tram rail_urban rail rail_electric ship" oneway="0"/>
    <type id="highway.service" priority="2" numLanes="1" speed="5.56" allow="delivery bicycle pedestrian" oneway="0"/>
    <type id="highway.services" priority="1" numLanes="1" speed="8.33" disallow="tram rail_urban rail rail_electric ship" oneway="0"/>
    <type id="highway.stairs" priority="1" numLanes="1" speed="1.39" allow="pedestrian" oneway="1" width="2.00"/>
    <type id="highway.step" priority="1" numLanes="1" speed="1.39" allow="pedestrian" oneway="1" width="2.00"/>
    <type id="highway.steps" priority="1" numLanes="1" speed="1.39" allow="pedestrian" oneway="1" width="2.00"/>
    <type id="highway.tertiary" priority="6" numLanes="1" speed="22.22" disallow="tram rail_urban rail rail_electric ship" oneway="0"/>
    <type id="highway.tertiary_link" priority="5" numLanes="1" speed="22.22" disallow="tram rail_urban rail rail_electric ship" oneway="0"/>
    <type id="highway.track" priority="1" numLanes="1" speed="5.56" disallow="tram rail_urban rail rail_electric ship" oneway="0"/>
    <type id="highway.trunk" priority="11" numLanes="2" speed="27.78" disallow="tram rail_urban rail rail_electric bicycle pedestrian ship" oneway="0"/>
    <type id="highway.trunk_link" priority="10" numLanes="1" speed="22.22" disallow="tram rail_urban rail rail_electric bicycle pedestrian ship" oneway="0"/>
    <type id="highway.unclassified" priority="5" numLanes="1" speed="13.89" disallow="tram rail_urban rail rail_electric ship" oneway="0"/>
    <type id="highway.unsurfaced" priority="1" numLanes="1" speed="8.33" disallow="tram rail_urban rail rail_electric ship" oneway="0"/>
    <type id="railway.light_rail" priority="15" numLanes="1" speed="27.78" allow="rail_urban" oneway="1"/>
    <type id="railway.preserved" priority="15" numLanes="1" speed="27.78" allow="rail" oneway="1"/>
    <type id="railway.rail" priority="15" numLanes="1" speed="83.33" allow="rail rail_electric" oneway="1"/>
    <type id="railway.subway" priority="15" numLanes="1" speed="27.78" allow="rail_urban" oneway="1"/>
    <type id="railway.tram" priority="15" numLanes="1" speed="13.89" allow="tram" oneway="1"/>

    <edge id=":1241354554_0" function="internal">
        <lane id=":1241354554_0_0" index="0" allow="private emergency authority army vip passenger hov taxi bus coach delivery truck trailer motorcycle evehicle custom1 custom2" speed="25.00" length="5.48" shape="14866.51,13048.23 14865.01,13047.83 14863.73,13047.96 14862.69,13048.60 14861.88,13049.77"/>
    </edge>
    <edge id=":1241354554_1" function="internal">
        <lane id=":1241354554_1_0" index="0" disallow="tram rail_urban rail rail_electric bicycle pedestrian ship" speed="27.78" length="6.63" shape="14866.51,13048.23 14860.35,13045.65"/>
        <lane id=":1241354554_1_1" index="1" disallow="tram rail_urban rail rail_electric bicycle pedestrian ship" speed="27.78" length="6.63" shape="14867.75,13045.17 14861.67,13042.63"/>
    </edge>
    <edge id=":1241354554_3" function="internal">
        <lane id=":1241354554_3_0" index="0" allow="private emergency authority army vip passenger hov taxi bus coach delivery truck trailer motorcycle evehicle custom1 custom2" speed="22.22" length="9.73" shape="14866.21,13041.06 14861.88,13049.77"/>
    </edge>
    <edge id=":1241354554_4" function="internal">
        <lane id=":1241354554_4_0" index="0" disallow="tram rail_urban rail rail_electric bicycle pedestrian ship" speed="25.00" length="5.41" shape="14866.21,13041.06 14865.38,13042.25 14864.34,13042.90 14863.10,13043.03 14861.67,13042.63"/>
    </edge>
    <edge id=":1241354682_0" function="internal">
        <lane id=":1241354682_0_0" index="0" allow="private emergency authority army vip passenger hov taxi bus coach delivery truck trailer motorcycle evehicle custom1 custom2" speed="26.75" length="15.11" shape="8104.16,19588.21 8107.17,19586.64 8109.96,19585.32 8112.85,19583.48 8116.15,19580.38"/>
        <lane id=":1241354682_0_1" index="1" allow="private emergency authority army vip passenger hov taxi bus coach delivery truck trailer motorcycle evehicle custom1 custom2" speed="26.75" length="15.11" shape="8104.16,19588.21 8107.49,19587.05 8111.04,19586.59 8114.75,19585.53 8118.59,19582.60"/>
    </edge>
    <edge id=":1241354682_2" function="internal">
        <lane id=":1241354682_2_0" index="0" allow="private emergency authority army vip passenger hov taxi bus coach delivery truck trailer motorcycle evehicle custom1 custom2" speed="31.29" length="14.39" shape="8106.45,19590.99 8116.15,19580.38"/>
        <lane id=":1241354682_2_1" index="1" allow="private emergency authority army vip passenger hov taxi bus coach delivery truck trailer motorcycle evehicle custom1 custom2" speed="31.29" length="14.39" shape="8108.89,19593.21 8118.59,19582.60"/>
        <lane id=":1241354682_2_2" index="2" allow="private emergency authority army vip passenger hov taxi bus coach delivery truck trailer motorcycle evehicle custom1 custom2" speed="31.29" length="14.39" shape="8111.33,19595.43 8121.04,19584.81"/>
        <lane id=":1241354682_2_3" index="3" allow="private emergency authority army vip passenger hov taxi bus coach delivery truck trailer motorcycle evehicle custom1 custom2" speed="31.29" length="14.39" shape="8113.77,19597.65 8123.49,19587.03"/>
    </edge>
    <edge id=":1241354761_0" function="internal">
        <lane id=":1241354761_0_0" index="0" allow="private emergency authority army vip passenger hov taxi bus coach delivery truck trailer motorcycle evehicle custom1 custom2" speed="22.22" length="8.84" shape="6713.88,20617.03 6722.69,20616.48"/>
    </edge>
    <edge id=":1241354761_1" function="internal">
        <lane id=":1241354761_1_0" index="0" allow="private emergency authority army vip passenger hov taxi bus coach delivery truck trailer motorcycle evehicle custom1 custom2" speed="22.22" length="8.75" shape="6715.53,20621.04 6717.19,20619.16 6718.93,20617.77 6720.77,20616.88 6722.69,20616.48"/>
    </edge>
    <edge id=":1241354935_0" function="internal">
        <lane id=":1241354935_0_0" index="0" allow="private emergency authority army vip passenger hov taxi bus coach delivery truck trailer motorcycle evehicle custom1 custom2" speed="22.22" length="0.10" shape="7648.33,20011.17 7648.33,20011.17"/>
    </edge>
    <edge id=":1241355114_0" function="internal">
        <lane id=":1241355114_0_0" index="0" disallow="tram rail_urban rail rail_electric bicycle pedestrian ship" speed="27.78" length="0.26" shape="14704.28,12970.79 14703.99,12970.62"/>
        <lane id=":1241355114_0_1" index="1" disallow="tram rail_urban rail rail_electric bicycle pedestrian ship" speed="27.78" length="0.26" shape="14705.83,12967.87 14705.67,12967.78"/>
    </edge>
    <edge id=":1241355233_0" function="internal">
        <lane id=":1241355233_0_0" index="0" allow="private emergency authority army vip passenger hov taxi bus coach delivery truck trailer motorcycle evehicle custom1 custom2" speed="22.22" length="0.28" shape="7658.15,20098.96 7658.18,20099.24"/>
    </edge>
    <edge id=":1241355254_0" function="internal">
        <lane id=":1241355254_0_0" index="0" disallow="tram rail_urban rail rail_electric ship" speed="27.78" length="0.41" shape="10230.86,17224.22 10230.78,17223.75"/>
        <lane id=":1241355254_0_1" index="1" disallow="tram rail_urban rail rail_electric ship" speed="27.78" length="0.41" shape="10234.10,17223.56 10234.04,17223.24"/>
    </edge>
    <edge id=":1241355254_2" function="internal">
        <lane id=":1241355254_2_0" index="0" disallow="tram rail_urban rail rail_electric ship" speed="27.78" length="2.41" shape="10234.10,17223.56 10234.66,17222.19 10235.39,17221.62"/>
    </edge>
    <edge id=":1241355254_6" function="internal">
        <lane id=":1241355254_6_0" index="0" speed="27.78" length="2.41" shape="10235.39,17221.62 10236.28,17221.86 10237.33,17222.91"/>
    </edge>
    <edge id=":1241355254_3" function="internal">
        <lane id=":1241355254_3_0" index="0" disallow="tram rail_urban rail rail_electric ship" speed="27.78" length="0.14" shape="10240.56,17222.21 10240.57,17222.25"/>
        <lane id=":1241355254_3_1" index="1" disallow="tram rail_urban rail rail_electric ship" speed="27.78" length="0.14" shape="10237.30,17222.73 10237.33,17222.91"/>
    </edge>
    <edge id=":1241355254_5" function="internal">
        <lane id=":1241355254_5_0" index="0" disallow="tram rail_urban rail rail_electric ship" speed="27.78" length="2.41" shape="10237.30,17222.73 10236.68,17224.08 10235.93,17224.61"/>
    </edge>
    <edge id=":1241355254_7" function="internal">
        <lane id=":1241355254_7_0" index="0" speed="27.78" length="2.41" shape="10235.93,17224.61 10235.05,17224.33 10234.04,17223.24"/>
    </edge>
    <edge id=":1241355371_0" function="internal">
        <lane id=":1241355371_0_0" index="0" allow="private emergency authority army vip passenger hov taxi bus coach delivery truck trailer motorcycle evehicle custom1 custom2" speed="26.75" length="19.58" shape="18499.89,8254.08 18495.87,8259.10 18493.24,8263.45 18491.36,8267.26 18489.59,8270.64"/>
    </edge>
    <edge id=":1241355371_1" function="internal">
        <lane id=":1241355371_1_0" index="0" allow="private emergency authority army vip passenger hov taxi bus coach delivery truck trailer motorcycle evehicle custom1 custom2" speed="31.29" length="19.54" shape="18499.89,8254.08 18486.80,8268.57"/>
        <lane id=":1241355371_1_1" index="1" allow="private emergency authority army vip passenger hov taxi bus coach delivery truck trailer motorcycle evehicle custom1 custom2" speed="31.29" length="19.54" shape="18497.45,8251.85 18484.35,8266.35"/>
        <lane id=":1241355371_1_2" index="2" allow="private emergency authority army vip passenger hov taxi bus coach delivery truck trailer motorcycle evehicle custom1 custom2" speed="31.29" length="19.54" shape="18495.01,8249.63 18481.91,8264.13"/>
        <lane id=":1241355371_1_3" index="3" allow="private emergency authority army vip passenger hov taxi bus coach delivery truck trailer motorcycle evehicle custom1 custom2" speed="31.29" length="19.54" shape="18492.57,8247.41 18479.47,8261.92"/>
    </edge>
    <edge id=":1241355386_0" function="internal">
        <lane id=":1241355386_0_0" index="0" disallow="tram rail_urban rail rail_electric bicycle pedestrian ship" speed="27.78" length="0.25" shape="14635.18,12929.92 14634.86,12929.72"/>
        <lane id=":1241355386_0_1" index="1" disallow="tram rail_urban rail rail_electric bicycle pedestrian ship" speed="27.78" length="0.25" shape="14636.86,12927.08 14636.75,12927.02"/>
    </edge>
    <edge id=":1241355409_0" function="internal">
        <lane id=":1241355409_0_0" index="0" allow="private emergency authority army vip passenger hov taxi bus coach delivery truck trailer motorcycle evehicle custom1 custom2" speed="22.22" length="0.29" shape="7567.57,20469.63 7567.45,20469.89"/>
    </edge>
    <edge id=":1241355410_0" function="internal">
        <lane id=":1241355410_0_0" index="0" disallow="tram rail_urban rail rail_electric ship" speed="25.00" length="5.91" shape="14528.92,12855.71 14527.67,12854.53 14527.06,12853.45 14526.45,12852.38 14525.16,12851.24"/>
    </edge>
    <edge id=":1241355410_1" function="internal">
        <lane id=":1241355410_1_0" index="0" allow="private emergency authority army vip passenger hov taxi bus coach delivery truck trailer motorcycle evehicle custom1 custom2" speed="25.00" length="4.41" shape="14530.81,12853.01 14529.97,12852.27 14529.37,12851.39 14529.02,12850.38 14528.90,12849.23"/>
    </edge>
    <edge id=":1241355485_0" function="internal">
        <lane id=":1241355485_0_0" index="0" disallow="tram rail_urban rail rail_electric ship" speed="27.78" length="0.30" shape="12390.44,15201.06 12390.41,15200.76"/>
        <lane id=":1241355485_0_1" index="1" disallow="tram rail_urban rail rail_electric ship" speed="27.78" length="0.30" shape="12393.73,15200.71 12393.69,15200.41"/>
    </edge>
    <edge id=":1241355485_2" function="internal">
        <lane id=":1241355485_2_0" index="0" disallow="tram rail_urban rail rail_electric ship" speed="27.78" length="2.41" shape="12393.73,15200.71 12394.41,15199.39 12395.19,15198.89"/>
    </edge>
    <edge id=":1241355485_6" function="internal">
        <lane id=":1241355485_6_0" index="0" speed="27.78" length="2.41" shape="12395.19,15198.89 12396.05,15199.21 12397.01,15200.35"/>
    </edge>
    <edge id=":1241355485_3" function="internal">
        <lane id=":1241355485_3_0" index="0" disallow="tram rail_urban rail rail_electric ship" speed="27.78" length="0.30" shape="12400.26,15199.70 12400.29,15200.00"/>
        <lane id=":1241355485_3_1" index="1" disallow="tram rail_urban rail rail_electric ship" speed="27.78" length="0.30" shape="12396.97,15200.05 12397.01,15200.35"/>
    </edge>
    <edge id=":1241355485_5" function="internal">
        <lane id=":1241355485_5_0" index="0" disallow="tram rail_urban rail rail_electric ship" speed="27.78" length="2.41" shape="12396.97,15200.05 12396.29,15201.37 12395.51,15201.87"/>
    </edge>
    <edge id=":1241355485_7" function="internal">
        <lane id=":1241355485_7_0" index="0" speed="27.78" length="2.41" shape="12395.51,15201.87 12394.65,15201.55 12393.69,15200.41"/>
    </edge>
    <edge id=":1241356094_0" function="internal">
        <lane id=":1241356094_0_0" index="0" allow="private emergency authority army vip passenger hov taxi bus coach delivery truck trailer motorcycle evehicle custom1 custom2" speed="26.75" length="34.33" shape="12847.13,14791.91 12851.49,14789.38 12857.99,14785.63 12866.22,14780.43 12875.79,14773.55"/>
        <lane id=":1241356094_0_1" index="1" allow="private emergency authority army vip passenger hov taxi bus coach delivery truck trailer motorcycle evehicle custom1 custom2" speed="26.75" length="34.33" shape="12847.13,14791.91 12851.78,14789.80 12858.93,14786.98 12867.84,14782.69 12877.80,14776.16"/>
    </edge>
    <edge id=":1241356094_2" function="internal">
        <lane id=":1241356094_2_0" index="0" allow="private emergency authority army vip passenger hov taxi bus coach delivery truck trailer motorcycle evehicle custom1 custom2" speed="31.29" length="34.04" shape="12849.05,14794.64 12875.79,14773.55"/>
        <lane id=":1241356094_2_1" index="1" allow="private emergency authority army vip passenger hov taxi bus coach delivery truck trailer motorcycle evehicle custom1 custom2" speed="31.29" length="34.04" shape="12851.08,14797.25 12877.80,14776.16"/>
        <lane id=":1241356094_2_2" index="2" allow="private emergency authority army vip passenger hov taxi bus coach delivery truck trailer motorcycle evehicle custom1 custom2" speed="31.29" length="34.04" shape="12853.10,14799.85 12879.82,14778.77"/>
        <lane id=":1241356094_2_3" index="3" allow="private emergency authority army vip passenger hov taxi bus coach delivery truck trailer motorcycle evehicle custom1 custom2" speed="31.29" length="34.04" shape="12855.13,14802.45 12881.84,14781.38"/>
    </edge>
    <edge id=":1241356304_0" function="internal">
        <lane id=":1241356304_0_0" index="0" disallow="tram rail_urban rail rail_electric ship" speed="27.78" length="4.82" shape="12355.63,14794.96 12356.33,14793.65 12357.11,14793.16 12357.97,14793.49 12358.91,14794.64"/>
    </edge>
    <edge id=":1241356401_0" function="internal">
        <lane id=":1241356401_0_0" index="0" allow="private emergency authority army vip passenger hov taxi bus coach delivery truck trailer motorcycle evehicle custom1 custom2" speed="26.75" length="18.79" shape="12482.89,15078.39 12487.51,15074.33 12490.71,15070.71 12493.13,15067.45 12495.44,15064.50"/>
    </edge>
    <edge id=":1241356401_1" function="internal">
        <lane id=":1241356401_1_0" index="0" allow="private emergency authority army vip passenger hov taxi bus coach delivery truck trailer motorcycle evehicle custom1 custom2" speed="31.29" length="18.74" shape="12482.89,15078.39 12497.82,15067.04"/>
        <lane id=":1241356401_1_1" index="1" allow="private emergency authority army vip passenger hov taxi bus coach delivery truck trailer motorcycle evehicle custom1 custom2" speed="31.29" length="18.74" shape="12484.92,15081.00 12499.84,15069.65"/>
        <lane id=":1241356401_1_2" index="2" allow="private emergency authority army vip passenger hov taxi bus coach delivery truck trailer motorcycle evehicle custom1 custom2" speed="31.29" length="18.74" shape="12486.94,15083.61 12501.85,15072.27"/>
        <lane id=":1241356401_1_3" index="3" allow="private emergency authority army vip passenger hov taxi bus coach delivery truck trailer motorcycle evehicle custom1 custom2" speed="31.29" length="18.74" shape="12488.96,15086.21 12503.86,15074.88"/>
    </edge>
    <edge id=":1241357374_0" function="internal">
        <lane id=":1241357374_0_0" index="0" disallow="tram rail_urban rail rail_electric ship" speed="27.78" length="4.82" shape="6856.31,20768.88 6856.64,20770.33 6856.37,20771.22 6855.50,20771.53 6854.03,20771.28"/>
    </edge>
    <edge id=":1844867707_0" function="internal">
        <lane id=":1844867707_0_0" index="0" allow="private emergency authority army vip passenger hov taxi bus coach delivery truck trailer motorcycle evehicle custom1 custom2" speed="26.75" length="34.53" shape="14693.77,12887.22 14699.57,12876.78 14703.63,12867.77 14706.44,12860.68 14708.47,12856.02"/>
    </edge>
    <edge id=":1844867707_1" function="internal">
        <lane id=":1844867707_1_0" index="0" allow="private emergency authority army vip passenger hov taxi bus coach delivery truck trailer motorcycle evehicle custom1 custom2" speed="31.29" length="34.58" shape="14693.77,12887.22 14711.37,12857.52"/>
        <lane id=":1844867707_1_1" index="1" allow="private emergency authority army vip passenger hov taxi bus coach delivery truck trailer motorcycle evehicle custom1 custom2" speed="31.29" length="34.58" shape="14696.57,12888.96 14714.19,12859.24"/>
        <lane id=":1844867707_1_2" index="2" allow="private emergency authority army vip passenger hov taxi bus coach delivery truck trailer motorcycle evehicle custom1 custom2" speed="31.29" length="34.58" shape="14699.37,12890.71 14717.01,12860.95"/>
        <lane id=":1844867707_1_3" index="3" allow="private emergency authority army vip passenger hov taxi bus coach delivery truck trailer motorcycle evehicle custom1 custom2" speed="31.29" length="34.58" shape="14702.17,12892.45 14719.83,12862.66"/>
    </edge>
    <edge id=":1844867715_0" function="internal">
        <lane id=":1844867715_0_0" index="0" allow="private emergency authority army vip passenger hov taxi bus coach delivery truck trailer motorcycle evehicle custom1 custom2" speed="22.22" length="26.08" shape="14793.49,13136.36 14769.24,13145.93"/>
    </edge>
    <edge id=":1844867715_1" function="internal">
        <lane id=":1844867715_1_0" index="0" allow="private emergency authority army vip passenger hov taxi bus coach delivery truck trailer motorcycle evehicle custom1 custom2" speed="22.22" length="26.07" shape="14792.01,13133.30 14787.29,13136.09 14780.78,13139.95 14774.19,13143.64 14769.24,13145.93"/>
    </edge>
    <edge id=":1844867719_0" function="internal">
        <lane id=":1844867719_0_0" index="0" allow="private emergency authority army vip passenger hov taxi bus coach delivery truck trailer motorcycle evehicle custom1 custom2" speed="26.75" length="25.82" shape="14366.31,13348.57 14371.35,13341.44 14374.80,13335.25 14377.21,13330.14 14379.12,13326.23"/>
    </edge>
    <edge id=":1844867719_1" function="internal">
        <lane id=":1844867719_1_0" index="0" allow="private emergency authority army vip passenger hov taxi bus coach delivery truck trailer motorcycle evehicle custom1 custom2" speed="31.29" length="25.79" shape="14366.31,13348.57 14381.97,13328.12"/>
        <lane id=":1844867719_1_1" index="1" allow="private emergency authority army vip passenger hov taxi bus coach delivery truck trailer motorcycle evehicle custom1 custom2" speed="31.29" length="25.79" shape="14368.90,13350.62 14384.57,13330.15"/>
        <lane id=":1844867719_1_2" index="2" allow="private emergency authority army vip passenger hov taxi bus coach delivery truck trailer motorcycle evehicle custom1 custom2" speed="31.29" length="25.79" shape="14371.48,13352.67 14387.17,13332.18"/>
        <lane id=":1844867719_1_3" index="3" allow="private emergency authority army vip passenger hov taxi bus coach delivery truck trailer motorcycle evehicle custom1 custom2" speed="31.29" length="25.79" shape="14374.07,13354.73 14389.77,13334.21"/>
    </edge>
    <edge id=":1844879372_0" function="internal">
        <lane id=":1844879372_0_0" index="0" allow="private emergency authority army vip passenger hov taxi bus coach delivery truck trailer motorcycle evehicle custom1 custom2" speed="31.29" length="0.30" shape="18548.93,8098.84 18549.15,8098.59"/>
        <lane id=":1844879372_0_1" index="1" allow="private emergency authority army vip passenger hov taxi bus coach delivery truck trailer motorcycle evehicle custom1 custom2" speed="31.29" length="0.30" shape="18551.37,8101.06 18551.58,8100.83"/>
        <lane id=":1844879372_0_2" index="2" allow="private emergency authority army vip passenger hov taxi bus coach delivery truck trailer motorcycle evehicle custom1 custom2" speed="31.29" length="0.30" shape="18553.81,8103.28 18554.00,8103.07"/>
        <lane id=":1844879372_0_3" index="3" allow="private emergency authority army vip passenger hov taxi bus coach delivery truck trailer motorcycle evehicle custom1 custom2" speed="31.29" length="0.30" shape="18556.25,8105.50 18556.43,8105.31"/>
    </edge>
    <edge id=":1844879374_0" function="internal">
        <lane id=":1844879374_0_0" index="0" allow="private emergency authority army vip passenger hov taxi bus coach delivery truck trailer motorcycle evehicle custom1 custom2" speed="31.29" length="0.30" shape="18599.09,8145.97 18598.88,8146.20"/>
        <lane id=":1844879374_0_1" index="1" allow="private emergency authority army vip passenger hov taxi bus coach delivery truck trailer motorcycle evehicle custom1 custom2" speed="31.29" length="0.30" shape="18596.67,8143.74 18596.46,8143.96"/>
        <lane id=":1844879374_0_2" index="2" allow="private emergency authority army vip passenger hov taxi bus coach delivery truck trailer motorcycle evehicle custom1 custom2" speed="31.29" length="0.30" shape="18594.24,8141.50 18594.04,8141.72"/>
        <lane id=":1844879374_0_3" index="3" allow="private emergency authority army vip passenger hov taxi bus coach delivery truck trailer motorcycle evehicle custom1 custom2" speed="31.29" length="0.30" shape="18591.81,8139.27 18591.62,8139.48"/>
    </edge>
    <edge id=":1844879375_0" function="internal">
        <lane id=":1844879375_0_0" index="0" allow="private emergency authority army vip passenger hov taxi bus coach delivery truck trailer motorcycle evehicle custom1 custom2" speed="31.29" length="0.30" shape="18558.27,8190.04 18558.10,8190.23"/>
        <lane id=":1844879375_0_1" index="1" allow="private emergency authority army vip passenger hov taxi bus coach delivery truck trailer motorcycle evehicle custom1 custom2" speed="31.29" length="0.30" shape="18555.85,8187.80 18555.66,8188.01"/>
        <lane id=":1844879375_0_2" index="2" allow="private emergency authority army vip passenger hov taxi bus coach delivery truck trailer motorcycle evehicle custom1 custom2" speed="31.29" length="0.30" shape="18553.43,8185.56 18553.22,8185.79"/>
        <lane id=":1844879375_0_3" index="3" allow="private emergency authority army vip passenger hov taxi bus coach delivery truck trailer motorcycle evehicle custom1 custom2" speed="31.29" length="0.30" shape="18551.01,8183.32 18550.78,8183.56"/>
    </edge>
    <edge id=":1844879378_0" function="internal">
        <lane id=":1844879378_0_0" index="0" allow="private emergency authority army vip passenger hov taxi bus coach delivery truck trailer motorcycle evehicle custom1 custom2" speed="31.29" length="0.30" shape="18279.39,8495.26 18279.20,8495.47"/>
        <lane id=":1844879378_0_1" index="1" allow="private emergency authority army vip passenger hov taxi bus coach delivery truck trailer motorcycle evehicle custom1 custom2" speed="31.29" length="0.30" shape="18276.96,8493.03 18276.76,8493.25"/>
        <lane id=":1844879378_0_2" index="2" allow="private emergency authority army vip passenger hov taxi bus coach delivery truck trailer motorcycle evehicle custom1 custom2" speed="31.29" length="0.30" shape="18274.52,8490.80 18274.32,8491.03"/>
        <lane id=":1844879378_0_3" index="3" allow="private emergency authority army vip passenger hov taxi bus coach delivery truck trailer motorcycle evehicle custom1 custom2" speed="31.29" length="0.30" shape="18272.09,8488.58 18271.87,8488.81"/>
    </edge>
    <edge id=":1844879381_0" function="internal">
        <lane id=":1844879381_0_0" index="0" allow="private emergency authority army vip passenger hov taxi bus coach delivery truck trailer motorcycle evehicle custom1 custom2" speed="26.75" length="22.74" shape="17976.47,8728.83 17981.32,8722.94 17984.77,8717.91 17987.33,8713.68 17989.48,8710.22"/>
    </edge>
    <edge id=":1844879381_1" function="internal">
        <lane id=":1844879381_1_0" index="0" allow="private emergency authority army vip passenger hov taxi bus coach delivery truck trailer motorcycle evehicle custom1 custom2" speed="31.29" length="22.70" shape="17976.47,8728.83 17992.15,8712.34"/>
        <lane id=":1844879381_1_1" index="1" allow="private emergency authority army vip passenger hov taxi bus coach delivery truck trailer motorcycle evehicle custom1 custom2" speed="31.29" length="22.70" shape="17978.93,8731.04 17994.58,8714.57"/>
        <lane id=":1844879381_1_2" index="2" allow="private emergency authority army vip passenger hov taxi bus coach delivery truck trailer motorcycle evehicle custom1 custom2" speed="31.29" length="22.70" shape="17981.38,8733.24 17997.01,8716.81"/>
        <lane id=":1844879381_1_3" index="3" allow="private emergency authority army vip passenger hov taxi bus coach delivery truck trailer motorcycle evehicle custom1 custom2" speed="31.29" length="22.70" shape="17983.83,8735.45 17999.43,8719.04"/>
    </edge>
    <edge id=":1844879421_0" function="internal">