<additional>
  <tazs>

  <taz id="1" edges="119257914">
  </taz>
  <taz id="2" edges="27414342#0">
  </taz>
  <taz id="3" edges="119257908#3">
  </taz>

  </tazs>

</additional>
