<?xml version="1.0" encoding="UTF-8"?>

<net version="1.1" junctionCornerDetail="5" limitTurnSpeed="5.50" xmlns:xsi="http://www.w3.org/2001/XMLSchema-instance" xsi:noNamespaceSchemaLocation="http://sumo.dlr.de/xsd/net_file.xsd">

    <location netOffset="-390179.01,-3777562.33" convBoundary="0.00,0.00,2176.02,2286.69" origBoundary="-118.19,34.13,-118.17,34.15" projParameter="+proj=utm +zone=11 +ellps=WGS84 +datum=WGS84 +units=m +no_defs"/>

    <type id="highway.bridleway" priority="1" numLanes="1" speed="2.78" allow="pedestrian" oneway="1" width="2.00"/>
    <type id="highway.bus_guideway" priority="1" numLanes="1" speed="27.78" allow="bus" oneway="1"/>
    <type id="highway.cycleway" priority="1" numLanes="1" speed="8.33" allow="bicycle" oneway="0" width="1.00"/>
    <type id="highway.footway" priority="1" numLanes="1" speed="2.78" allow="pedestrian" oneway="1" width="2.00"/>
    <type id="highway.ford" priority="1" numLanes="1" speed="2.78" allow="army" oneway="0"/>
    <type id="highway.living_street" priority="3" numLanes="1" speed="2.78" disallow="tram rail_urban rail rail_electric ship" oneway="0"/>
    <type id="highway.motorway" priority="13" numLanes="2" speed="44.44" allow="private emergency authority army vip passenger hov taxi bus coach delivery truck trailer motorcycle evehicle custom1 custom2" oneway="1"/>
    <type id="highway.motorway_link" priority="12" numLanes="1" speed="22.22" allow="private emergency authority army vip passenger hov taxi bus coach delivery truck trailer motorcycle evehicle custom1 custom2" oneway="1"/>
    <type id="highway.path" priority="1" numLanes="1" speed="2.78" allow="bicycle pedestrian" oneway="1" width="2.00"/>
    <type id="highway.pedestrian" priority="1" numLanes="1" speed="2.78" allow="pedestrian" oneway="1" width="2.00"/>
    <type id="highway.primary" priority="9" numLanes="2" speed="27.78" disallow="tram rail_urban rail rail_electric ship" oneway="0"/>
    <type id="highway.primary_link" priority="8" numLanes="1" speed="22.22" disallow="tram rail_urban rail rail_electric ship" oneway="0"/>
    <type id="highway.raceway" priority="14" numLanes="2" speed="83.33" allow="vip" oneway="0"/>
    <type id="highway.residential" priority="4" numLanes="1" speed="13.89" disallow="tram rail_urban rail rail_electric ship" oneway="0"/>
    <type id="highway.secondary" priority="7" numLanes="2" speed="27.78" disallow="tram rail_urban rail rail_electric ship" oneway="0"/>
    <type id="highway.secondary_link" priority="6" numLanes="1" speed="22.22" disallow="tram rail_urban rail rail_electric ship" oneway="0"/>
    <type id="highway.service" priority="2" numLanes="1" speed="5.56" allow="delivery bicycle pedestrian" oneway="0"/>
    <type id="highway.stairs" priority="1" numLanes="1" speed="1.39" allow="pedestrian" oneway="1" width="2.00"/>
    <type id="highway.step" priority="1" numLanes="1" speed="1.39" allow="pedestrian" oneway="1" width="2.00"/>
    <type id="highway.steps" priority="1" numLanes="1" speed="1.39" allow="pedestrian" oneway="1" width="2.00"/>
    <type id="highway.tertiary" priority="6" numLanes="1" speed="22.22" disallow="tram rail_urban rail rail_electric ship" oneway="0"/>
    <type id="highway.tertiary_link" priority="5" numLanes="1" speed="22.22" disallow="tram rail_urban rail rail_electric ship" oneway="0"/>
    <type id="highway.track" priority="1" numLanes="1" speed="5.56" disallow="tram rail_urban rail rail_electric ship" oneway="0"/>
    <type id="highway.trunk" priority="11" numLanes="2" speed="27.78" disallow="tram rail_urban rail rail_electric bicycle pedestrian ship" oneway="0"/>
    <type id="highway.trunk_link" priority="10" numLanes="1" speed="22.22" disallow="tram rail_urban rail rail_electric bicycle pedestrian ship" oneway="0"/>
    <type id="highway.unclassified" priority="5" numLanes="1" speed="13.89" disallow="tram rail_urban rail rail_electric ship" oneway="0"/>
    <type id="highway.unsurfaced" priority="1" numLanes="1" speed="8.33" disallow="tram rail_urban rail rail_electric ship" oneway="0"/>
    <type id="railway.light_rail" priority="15" numLanes="1" speed="27.78" allow="rail_urban" oneway="1"/>
    <type id="railway.preserved" priority="15" numLanes="1" speed="27.78" allow="rail" oneway="1"/>
    <type id="railway.rail" priority="15" numLanes="1" speed="83.33" allow="rail rail_electric" oneway="1"/>
    <type id="railway.subway" priority="15" numLanes="1" speed="27.78" allow="rail_urban" oneway="1"/>
    <type id="railway.tram" priority="15" numLanes="1" speed="13.89" allow="tram" oneway="1"/>

    <edge id=":119257908#1-AddedOffRampNode_0" function="internal">
        <lane id=":119257908#1-AddedOffRampNode_0_0" index="0" allow="private emergency authority army vip passenger hov taxi bus coach delivery truck trailer motorcycle evehicle custom1 custom2" speed="29.06" length="8.13" shape="1531.75,935.81 1534.21,936.33 1536.06,935.94 1537.91,935.55 1540.36,936.07"/>
        <lane id=":119257908#1-AddedOffRampNode_0_1" index="1" allow="private emergency authority army vip passenger hov taxi bus coach delivery truck trailer motorcycle evehicle custom1 custom2" speed="29.06" length="8.13" shape="1531.75,935.81 1539.08,939.01"/>
        <lane id=":119257908#1-AddedOffRampNode_0_2" index="2" allow="private emergency authority army vip passenger hov taxi bus coach delivery truck trailer motorcycle evehicle custom1 custom2" speed="29.06" length="8.13" shape="1530.47,938.74 1537.80,941.94"/>
        <lane id=":119257908#1-AddedOffRampNode_0_3" index="3" allow="private emergency authority army vip passenger hov taxi bus coach delivery truck trailer motorcycle evehicle custom1 custom2" speed="29.06" length="8.13" shape="1529.19,941.67 1536.53,944.87"/>
        <lane id=":119257908#1-AddedOffRampNode_0_4" index="4" allow="private emergency authority army vip passenger hov taxi bus coach delivery truck trailer motorcycle evehicle custom1 custom2" speed="29.06" length="8.13" shape="1527.92,944.61 1535.25,947.81"/>
        <lane id=":119257908#1-AddedOffRampNode_0_5" index="5" allow="private emergency authority army vip passenger hov taxi bus coach delivery truck trailer motorcycle evehicle custom1 custom2" speed="29.06" length="8.13" shape="1526.64,947.54 1533.97,950.74"/>
    </edge>
    <edge id=":119257908#1-AddedOnRampNode_0" function="internal">
        <lane id=":119257908#1-AddedOnRampNode_0_0" index="0" allow="private emergency authority army vip passenger hov taxi bus coach delivery truck trailer motorcycle evehicle custom1 custom2" speed="29.06" length="8.13" shape="1297.24,867.95 1299.58,868.87 1300.90,870.21 1302.23,871.56 1304.57,872.48"/>
        <lane id=":119257908#1-AddedOnRampNode_0_1" index="1" allow="private emergency authority army vip passenger hov taxi bus coach delivery truck trailer motorcycle evehicle custom1 custom2" speed="29.06" length="8.13" shape="1296.69,871.10 1304.57,872.48"/>
        <lane id=":119257908#1-AddedOnRampNode_0_2" index="2" allow="private emergency authority army vip passenger hov taxi bus coach delivery truck trailer motorcycle evehicle custom1 custom2" speed="29.06" length="8.13" shape="1296.13,874.25 1304.01,875.63"/>
        <lane id=":119257908#1-AddedOnRampNode_0_3" index="3" allow="private emergency authority army vip passenger hov taxi bus coach delivery truck trailer motorcycle evehicle custom1 custom2" speed="29.06" length="8.13" shape="1295.58,877.41 1303.46,878.78"/>
        <lane id=":119257908#1-AddedOnRampNode_0_4" index="4" allow="private emergency authority army vip passenger hov taxi bus coach delivery truck trailer motorcycle evehicle custom1 custom2" speed="29.06" length="8.13" shape="1295.03,880.56 1302.91,881.93"/>
        <lane id=":119257908#1-AddedOnRampNode_0_5" index="5" allow="private emergency authority army vip passenger hov taxi bus coach delivery truck trailer motorcycle evehicle custom1 custom2" speed="29.06" length="8.13" shape="1294.48,883.71 1302.36,885.09"/>
    </edge>
    <edge id=":122546682_0" function="internal">
        <lane id=":122546682_0_0" index="0" disallow="tram rail_urban rail rail_electric ship" speed="22.22" length="14.18" shape="1845.38,1165.73 1843.94,1169.06 1842.67,1172.30 1841.61,1175.60 1840.78,1179.12"/>
    </edge>
    <edge id=":122546682_1" function="internal">
        <lane id=":122546682_1_0" index="0" disallow="tram rail_urban rail rail_electric ship" speed="7.45" length="6.16" shape="1845.38,1165.73 1842.85,1169.82 1841.68,1170.50"/>
    </edge>
    <edge id=":122546682_2" function="internal">
        <lane id=":122546682_2_0" index="0" disallow="tram rail_urban rail rail_electric ship" speed="3.65" length="2.34" shape="1845.38,1165.73 1844.16,1166.51 1843.27,1166.55"/>
    </edge>
    <edge id=":122546682_9" function="internal">
        <lane id=":122546682_9_0" index="0" disallow="tram rail_urban rail rail_electric ship" speed="7.45" length="10.11" shape="1841.68,1170.50 1839.97,1171.49 1836.73,1170.73 1833.12,1167.55"/>
    </edge>
    <edge id=":122546682_10" function="internal">
        <lane id=":122546682_10_0" index="0" disallow="tram rail_urban rail rail_electric ship" speed="3.65" length="2.34" shape="1843.27,1166.55 1842.70,1165.86 1842.45,1164.44"/>
    </edge>
    <edge id=":122546682_3" function="internal">
        <lane id=":122546682_3_0" index="0" disallow="tram rail_urban rail rail_electric ship" speed="5.76" length="9.17" shape="1835.55,1165.46 1837.58,1167.25 1839.40,1167.68 1841.03,1166.74 1842.45,1164.44"/>
    </edge>
    <edge id=":122546682_4" function="internal">
        <lane id=":122546682_4_0" index="0" disallow="tram rail_urban rail rail_electric ship" speed="11.60" length="15.10" shape="1835.55,1165.46 1838.28,1169.11 1840.07,1172.60 1840.90,1175.94 1840.78,1179.12"/>
    </edge>
    <edge id=":122546682_5" function="internal">
        <lane id=":122546682_5_0" index="0" disallow="tram rail_urban rail rail_electric ship" speed="3.65" length="4.67" shape="1835.55,1165.46 1835.72,1166.89 1835.38,1167.72 1834.51,1167.94 1833.12,1167.55"/>
    </edge>
    <edge id=":122546682_6" function="internal">
        <lane id=":122546682_6_0" index="0" disallow="tram rail_urban rail rail_electric ship" speed="10.48" length="12.23" shape="1837.64,1178.52 1837.69,1176.07 1836.96,1173.43 1835.43,1170.59 1833.12,1167.55"/>
    </edge>
    <edge id=":122546682_7" function="internal">
        <lane id=":122546682_7_0" index="0" disallow="tram rail_urban rail rail_electric ship" speed="22.22" length="14.91" shape="1837.64,1178.52 1838.50,1174.89 1839.64,1171.35 1840.98,1167.88 1842.45,1164.44"/>
    </edge>
    <edge id=":122546682_8" function="internal">
        <lane id=":122546682_8_0" index="0" disallow="tram rail_urban rail rail_electric ship" speed="3.65" length="2.34" shape="1837.64,1178.52 1838.65,1177.49 1839.51,1177.25"/>
    </edge>
    <edge id=":122546682_11" function="internal">
        <lane id=":122546682_11_0" index="0" disallow="tram rail_urban rail rail_electric ship" speed="3.65" length="2.34" shape="1839.51,1177.25 1840.22,1177.79 1840.78,1179.12"/>
    </edge>
    <edge id=":122684743_0" function="internal">
        <lane id=":122684743_0_0" index="0" disallow="tram rail_urban rail rail_electric ship" speed="27.78" length="14.49" shape="1243.99,850.93 1239.45,850.36 1236.11,849.29 1233.18,848.29 1229.89,847.92"/>
    </edge>
    <edge id=":122684743_1" function="internal">
        <lane id=":122684743_1_0" index="0" disallow="tram rail_urban rail rail_electric ship" speed="9.96" length="16.84" shape="1244.07,847.73 1241.06,846.90 1238.37,844.59 1235.99,840.78 1233.92,835.49"/>
    </edge>
    <edge id=":122684743_2" function="internal">
        <lane id=":122684743_2_0" index="0" disallow="tram rail_urban rail rail_electric ship" speed="3.65" length="4.67" shape="1244.07,847.73 1242.89,846.90 1242.51,846.09 1242.93,845.30 1244.15,844.53"/>
    </edge>
    <edge id=":122684743_3" function="internal">
        <lane id=":122684743_3_0" index="0" disallow="tram rail_urban rail rail_electric ship" speed="8.03" length="10.66" shape="1236.97,834.52 1238.22,837.45 1239.84,839.56 1241.85,840.86 1244.23,841.33"/>
    </edge>
    <edge id=":122684743_4" function="internal">
        <lane id=":122684743_4_0" index="0" disallow="tram rail_urban rail rail_electric ship" speed="8.30" length="18.53" shape="1236.97,834.52 1238.07,840.23 1237.26,844.37 1234.53,846.93 1229.89,847.92"/>
    </edge>
    <edge id=":122684743_5" function="internal">
        <lane id=":122684743_5_0" index="0" disallow="tram rail_urban rail rail_electric ship" speed="3.65" length="2.56" shape="1236.97,834.52 1236.57,835.91 1235.93,836.53 1235.71,836.49"/>
    </edge>
    <edge id=":122684743_10" function="internal">
        <lane id=":122684743_10_0" index="0" disallow="tram rail_urban rail rail_electric ship" speed="3.65" length="2.11" shape="1235.71,836.49 1235.04,836.39 1233.92,835.49"/>
    </edge>
    <edge id=":122684743_6" function="internal">
        <lane id=":122684743_6_0" index="0" disallow="tram rail_urban rail rail_electric ship" speed="6.00" length="9.08" shape="1229.66,841.52 1232.22,841.07 1233.78,839.91 1234.34,838.05 1233.92,835.49"/>
    </edge>
    <edge id=":122684743_7" function="internal">
        <lane id=":122684743_7_0" index="0" disallow="tram rail_urban rail rail_electric ship" speed="27.78" length="14.47" shape="1229.66,841.52 1244.23,841.33"/>
        <lane id=":122684743_7_1" index="1" disallow="tram rail_urban rail rail_electric ship" speed="27.78" length="14.47" shape="1229.77,844.72 1244.15,844.53"/>
    </edge>
    <edge id=":122684743_9" function="internal">
        <lane id=":122684743_9_0" index="0" disallow="tram rail_urban rail rail_electric ship" speed="3.65" length="4.67" shape="1229.77,844.72 1231.00,845.48 1231.43,846.26 1231.06,847.08 1229.89,847.92"/>
    </edge>
    <edge id=":122695898_0" function="internal">
        <lane id=":122695898_0_0" index="0" disallow="tram rail_urban rail rail_electric ship" speed="27.78" length="14.27" shape="1461.38,888.47 1457.54,886.11 1454.99,883.80 1452.75,881.75 1449.87,880.18"/>
    </edge>
    <edge id=":122695898_1" function="internal">
        <lane id=":122695898_1_0" index="0" disallow="tram rail_urban rail rail_electric ship" speed="8.63" length="5.24" shape="1462.76,885.59 1459.55,883.20 1459.03,882.08"/>
    </edge>
    <edge id=":122695898_2" function="internal">
        <lane id=":122695898_2_0" index="0" disallow="tram rail_urban rail rail_electric ship" speed="3.65" length="2.34" shape="1462.76,885.59 1462.03,884.35 1462.01,883.45"/>
    </edge>
    <edge id=":122695898_9" function="internal">
        <lane id=":122695898_9_0" index="0" disallow="tram rail_urban rail rail_electric ship" speed="8.63" length="11.77" shape="1459.03,882.08 1458.05,879.96 1458.26,875.86 1460.18,870.89"/>
    </edge>
    <edge id=":122695898_10" function="internal">
        <lane id=":122695898_10_0" index="0" disallow="tram rail_urban rail rail_electric ship" speed="3.65" length="2.34" shape="1462.01,883.45 1462.72,882.90 1464.15,882.70"/>
    </edge>
    <edge id=":122695898_3" function="internal">
        <lane id=":122695898_3_0" index="0" disallow="tram rail_urban rail rail_electric ship" speed="6.45" length="9.03" shape="1463.03,872.35 1462.22,874.70 1462.37,876.73 1463.47,878.43 1465.54,879.82"/>
    </edge>
    <edge id=":122695898_4" function="internal">
        <lane id=":122695898_4_0" index="0" disallow="tram rail_urban rail rail_electric ship" speed="9.13" length="16.87" shape="1463.03,872.35 1460.17,876.81 1457.02,879.60 1453.59,880.72 1449.87,880.18"/>
    </edge>
    <edge id=":122695898_5" function="internal">
        <lane id=":122695898_5_0" index="0" disallow="tram rail_urban rail rail_electric ship" speed="3.65" length="4.67" shape="1463.03,872.35 1461.77,873.06 1460.88,873.05 1460.35,872.32 1460.18,870.89"/>
    </edge>
    <edge id=":122695898_6" function="internal">
        <lane id=":122695898_6_0" index="0" disallow="tram rail_urban rail rail_electric ship" speed="7.85" length="12.23" shape="1450.94,877.16 1453.43,877.45 1455.79,876.50 1458.05,874.31 1460.18,870.89"/>
    </edge>
    <edge id=":122695898_7" function="internal">
        <lane id=":122695898_7_0" index="0" disallow="tram rail_urban rail rail_electric ship" speed="27.78" length="14.33" shape="1450.94,877.16 1454.08,878.30 1456.89,879.40 1460.02,880.76 1464.15,882.70"/>
    </edge>
    <edge id=":122695898_8" function="internal">
        <lane id=":122695898_8_0" index="0" disallow="tram rail_urban rail rail_electric ship" speed="3.65" length="2.58" shape="1450.94,877.16 1451.80,878.32 1451.91,879.21 1451.74,879.38"/>
    </edge>
    <edge id=":122695898_11" function="internal">
        <lane id=":122695898_11_0" index="0" disallow="tram rail_urban rail rail_electric ship" speed="3.65" length="2.10" shape="1451.74,879.38 1451.27,879.83 1449.87,880.18"/>
    </edge>
    <edge id=":122919932_0" function="internal">
        <lane id=":122919932_0_0" index="0" disallow="tram rail_urban rail rail_electric ship" speed="9.72" length="0.87" shape="1877.86,868.66 1877.61,868.59 1877.43,868.56 1877.26,868.58 1877.01,868.64"/>
    </edge>
    <edge id=":122919932_1" function="internal">
        <lane id=":122919932_1_0" index="0" allow="delivery bicycle pedestrian" speed="3.65" length="1.96" shape="1877.86,868.66 1876.95,867.54 1876.86,867.03"/>
    </edge>
    <edge id=":122919932_4" function="internal">
        <lane id=":122919932_4_0" index="0" allow="delivery bicycle pedestrian" speed="3.65" length="2.71" shape="1876.86,867.03 1876.80,866.66 1877.41,866.01 1878.80,865.60"/>
    </edge>
    <edge id=":122919932_2" function="internal">
        <lane id=":122919932_2_0" index="0" allow="delivery bicycle pedestrian" speed="7.49" length="2.62" shape="1876.23,865.53 1876.99,865.36 1877.52,865.31 1878.05,865.39 1878.80,865.60"/>
    </edge>
    <edge id=":122919932_3" function="internal">
        <lane id=":122919932_3_0" index="0" disallow="tram rail_urban rail rail_electric ship" speed="3.65" length="2.71" shape="1876.23,865.53 1877.59,866.02 1878.17,866.70 1878.09,867.06"/>
    </edge>
    <edge id=":122919932_5" function="internal">
        <lane id=":122919932_5_0" index="0" disallow="tram rail_urban rail rail_electric ship" speed="3.65" length="1.96" shape="1878.09,867.06 1877.98,867.57 1877.01,868.64"/>
    </edge>
    <edge id=":122919934_0" function="internal">
        <lane id=":122919934_0_0" index="0" disallow="tram rail_urban rail rail_electric ship" speed="6.49" length="9.03" shape="1790.91,858.08 1788.43,858.02 1786.53,858.77 1785.22,860.33 1784.48,862.69"/>
    </edge>
    <edge id=":122919934_1" function="internal">
        <lane id=":122919934_1_0" index="0" disallow="tram rail_urban rail rail_electric ship" speed="7.99" length="14.21" shape="1790.91,858.08 1787.19,856.90 1784.75,854.81 1783.59,851.82 1783.70,847.92"/>
    </edge>
    <edge id=":122919934_2" function="internal">
        <lane id=":122919934_2_0" index="0" disallow="tram rail_urban rail rail_electric ship" speed="3.65" length="4.67" shape="1790.91,858.08 1789.86,857.09 1789.59,856.24 1790.12,855.51 1791.43,854.92"/>
    </edge>
    <edge id=":122919934_3" function="internal">
        <lane id=":122919934_3_0" index="0" disallow="tram rail_urban rail rail_electric ship" speed="6.50" length="9.03" shape="1786.86,848.47 1786.78,850.95 1787.52,852.85 1789.07,854.17 1791.43,854.92"/>
    </edge>
    <edge id=":122919934_4" function="internal">
        <lane id=":122919934_4_0" index="0" disallow="tram rail_urban rail rail_electric ship" speed="13.89" length="14.42" shape="1786.86,848.47 1784.48,862.69"/>
    </edge>
    <edge id=":122919934_5" function="internal">
        <lane id=":122919934_5_0" index="0" disallow="tram rail_urban rail rail_electric ship" speed="3.65" length="2.34" shape="1786.86,848.47 1785.86,849.52 1785.01,849.77"/>
    </edge>
    <edge id=":122919934_9" function="internal">
        <lane id=":122919934_9_0" index="0" disallow="tram rail_urban rail rail_electric ship" speed="3.65" length="2.34" shape="1785.01,849.77 1784.29,849.24 1783.70,847.92"/>
    </edge>
    <edge id=":122919934_6" function="internal">
        <lane id=":122919934_6_0" index="0" disallow="tram rail_urban rail rail_electric ship" speed="13.89" length="14.46" shape="1781.32,862.18 1783.70,847.92"/>
    </edge>
    <edge id=":122919934_7" function="internal">
        <lane id=":122919934_7_0" index="0" disallow="tram rail_urban rail rail_electric ship" speed="7.99" length="5.99" shape="1781.32,862.18 1782.48,858.46 1783.83,856.86"/>
    </edge>
    <edge id=":122919934_8" function="internal">
        <lane id=":122919934_8_0" index="0" disallow="tram rail_urban rail rail_electric ship" speed="3.65" length="2.34" shape="1781.32,862.18 1782.30,861.13 1783.16,860.86"/>
    </edge>
    <edge id=":122919934_10" function="internal">
        <lane id=":122919934_10_0" index="0" disallow="tram rail_urban rail rail_electric ship" speed="7.99" length="8.22" shape="1783.83,856.86 1784.55,856.01 1787.54,854.83 1791.43,854.92"/>
    </edge>
    <edge id=":122919934_11" function="internal">
        <lane id=":122919934_11_0" index="0" disallow="tram rail_urban rail rail_electric ship" speed="3.65" length="2.34" shape="1783.16,860.86 1783.88,861.38 1784.48,862.69"/>
    </edge>
    <edge id=":123382688_0" function="internal">
        <lane id=":123382688_0_0" index="0" disallow="tram rail_urban rail rail_electric ship" speed="27.78" length="15.51" shape="1641.39,968.82 1636.98,966.64 1633.99,964.28 1631.50,962.05 1628.58,960.23"/>
    </edge>
    <edge id=":123382688_1" function="internal">
        <lane id=":123382688_1_0" index="0" disallow="tram rail_urban rail rail_electric ship" speed="8.53" length="5.70" shape="1642.49,965.81 1638.91,963.67 1638.15,962.35"/>
    </edge>
    <edge id=":123382688_2" function="internal">
        <lane id=":123382688_2_0" index="0" disallow="tram rail_urban rail rail_electric ship" speed="3.65" length="2.34" shape="1642.49,965.81 1641.64,964.65 1641.54,963.76"/>
    </edge>
    <edge id=":123382688_9" function="internal">
        <lane id=":123382688_9_0" index="0" disallow="tram rail_urban rail rail_electric ship" speed="8.53" length="11.66" shape="1638.15,962.35 1637.11,960.53 1637.09,956.40 1638.86,951.26"/>
    </edge>
    <edge id=":123382688_10" function="internal">
        <lane id=":123382688_10_0" index="0" disallow="tram rail_urban rail rail_electric ship" speed="3.65" length="2.34" shape="1641.54,963.76 1642.19,963.15 1643.60,962.81"/>
    </edge>
    <edge id=":123382688_3" function="internal">
        <lane id=":123382688_3_0" index="0" disallow="tram rail_urban rail rail_electric ship" speed="6.32" length="9.04" shape="1641.75,952.62 1641.02,955.02 1641.26,957.02 1642.49,958.61 1644.70,959.81"/>
    </edge>
    <edge id=":123382688_4" function="internal">
        <lane id=":123382688_4_0" index="0" disallow="tram rail_urban rail rail_electric ship" speed="8.82" length="17.11" shape="1641.75,952.62 1638.97,957.26 1635.84,960.08 1632.38,961.07 1628.58,960.23"/>
    </edge>
    <edge id=":123382688_5" function="internal">
        <lane id=":123382688_5_0" index="0" disallow="tram rail_urban rail rail_electric ship" speed="3.65" length="4.67" shape="1641.75,952.62 1640.52,953.37 1639.62,953.39 1639.07,952.69 1638.86,951.26"/>
    </edge>
    <edge id=":123382688_6" function="internal">
        <lane id=":123382688_6_0" index="0" disallow="tram rail_urban rail rail_electric ship" speed="7.50" length="12.08" shape="1629.87,957.30 1632.34,957.76 1634.66,956.91 1636.83,954.74 1638.86,951.26"/>
    </edge>
    <edge id=":123382688_7" function="internal">
        <lane id=":123382688_7_0" index="0" disallow="tram rail_urban rail rail_electric ship" speed="27.78" length="14.79" shape="1629.87,957.30 1643.60,962.81"/>
    </edge>
    <edge id=":123382688_8" function="internal">
        <lane id=":123382688_8_0" index="0" disallow="tram rail_urban rail rail_electric ship" speed="3.65" length="2.56" shape="1629.87,957.30 1630.64,958.52 1630.69,959.41 1630.52,959.55"/>
    </edge>
    <edge id=":123382688_11" function="internal">
        <lane id=":123382688_11_0" index="0" disallow="tram rail_urban rail rail_electric ship" speed="3.65" length="2.11" shape="1630.52,959.55 1630.00,959.98 1628.58,960.23"/>
    </edge>
    <edge id=":123382690_0" function="internal">
        <lane id=":123382690_0_0" index="0" disallow="tram rail_urban rail rail_electric ship" speed="27.78" length="15.02" shape="1556.81,932.36 1552.67,930.03 1549.92,927.62 1547.61,925.37 1544.77,923.53"/>
    </edge>
    <edge id=":123382690_1" function="internal">
        <lane id=":123382690_1_0" index="0" disallow="tram rail_urban rail rail_electric ship" speed="8.66" length="5.38" shape="1558.07,929.42 1554.81,927.20 1554.15,925.93"/>
    </edge>
    <edge id=":123382690_2" function="internal">
        <lane id=":123382690_2_0" index="0" disallow="tram rail_urban rail rail_electric ship" speed="3.65" length="2.34" shape="1558.07,929.42 1557.28,928.21 1557.23,927.32"/>
    </edge>
    <edge id=":123382690_9" function="internal">
        <lane id=":123382690_9_0" index="0" disallow="tram rail_urban rail rail_electric ship" speed="8.66" length="11.52" shape="1554.15,925.93 1553.17,924.04 1553.15,919.94 1554.76,914.90"/>
    </edge>
    <edge id=":123382690_10" function="internal">
        <lane id=":123382690_10_0" index="0" disallow="tram rail_urban rail rail_electric ship" speed="3.65" length="2.34" shape="1557.23,927.32 1557.91,926.74 1559.33,926.48"/>
    </edge>
    <edge id=":123382690_3" function="internal">
        <lane id=":123382690_3_0" index="0" disallow="tram rail_urban rail rail_electric ship" speed="6.49" length="9.03" shape="1557.69,916.18 1557.02,918.57 1557.28,920.59 1558.47,922.25 1560.59,923.54"/>
    </edge>
    <edge id=":123382690_4" function="internal">
        <lane id=":123382690_4_0" index="0" disallow="tram rail_urban rail rail_electric ship" speed="8.63" length="16.88" shape="1557.69,916.18 1555.06,920.78 1552.04,923.54 1548.61,924.45 1544.77,923.53"/>
    </edge>
    <edge id=":123382690_5" function="internal">
        <lane id=":123382690_5_0" index="0" disallow="tram rail_urban rail rail_electric ship" speed="3.65" length="4.67" shape="1557.69,916.18 1556.47,916.96 1555.58,917.01 1555.01,916.32 1554.76,914.90"/>
    </edge>
    <edge id=":123382690_6" function="internal">
        <lane id=":123382690_6_0" index="0" disallow="tram rail_urban rail rail_electric ship" speed="7.28" length="11.70" shape="1546.10,920.62 1548.56,921.14 1550.82,920.36 1552.89,918.28 1554.76,914.90"/>
    </edge>
    <edge id=":123382690_7" function="internal">
        <lane id=":123382690_7_0" index="0" disallow="tram rail_urban rail rail_electric ship" speed="27.78" length="14.47" shape="1546.10,920.62 1559.33,926.48"/>
    </edge>
    <edge id=":123382690_8" function="internal">
        <lane id=":123382690_8_0" index="0" disallow="tram rail_urban rail rail_electric ship" speed="3.65" length="2.57" shape="1546.10,920.62 1546.86,921.84 1546.89,922.74 1546.71,922.88"/>
    </edge>
    <edge id=":123382690_11" function="internal">
        <lane id=":123382690_11_0" index="0" disallow="tram rail_urban rail rail_electric ship" speed="3.65" length="2.11" shape="1546.71,922.88 1546.20,923.30 1544.77,923.53"/>
    </edge>
    <edge id=":123382692_0" function="internal">
        <lane id=":123382692_0_0" index="0" disallow="tram rail_urban rail rail_electric ship" speed="27.78" length="13.31" shape="1344.52,854.38 1340.60,853.01 1337.88,851.35 1335.44,849.95 1332.33,849.34"/>
    </edge>
    <edge id=":123382692_1" function="internal">
        <lane id=":123382692_1_0" index="0" disallow="tram rail_urban rail rail_electric ship" speed="8.31" length="5.99" shape="1345.19,851.25 1340.83,849.47 1340.07,848.45"/>
    </edge>
    <edge id=":123382692_2" function="internal">
        <lane id=":123382692_2_0" index="0" disallow="tram rail_urban rail rail_electric ship" speed="3.65" length="2.34" shape="1345.19,851.25 1344.19,850.22 1343.97,849.35"/>
    </edge>
    <edge id=":123382692_10" function="internal">
        <lane id=":123382692_10_0" index="0" disallow="tram rail_urban rail rail_electric ship" speed="8.31" length="12.47" shape="1340.07,848.45 1338.60,846.47 1338.50,842.26 1340.54,836.84"/>
    </edge>
    <edge id=":123382692_11" function="internal">
        <lane id=":123382692_11_0" index="0" disallow="tram rail_urban rail rail_electric ship" speed="3.65" length="2.34" shape="1343.97,849.35 1344.53,848.65 1345.87,848.13"/>
    </edge>
    <edge id=":123382692_3" function="internal">
        <lane id=":123382692_3_0" index="0" disallow="tram rail_urban rail rail_electric ship" speed="6.02" length="9.08" shape="1343.38,838.30 1342.54,840.75 1342.78,842.68 1344.12,844.10 1346.55,845.00"/>
    </edge>
    <edge id=":123382692_4" function="internal">
        <lane id=":123382692_4_0" index="0" disallow="tram rail_urban rail rail_electric ship" speed="10.51" length="16.26" shape="1343.38,838.30 1340.55,843.15 1337.77,846.60 1335.03,848.67 1332.33,849.34"/>
    </edge>
    <edge id=":123382692_5" function="internal">
        <lane id=":123382692_5_0" index="0" disallow="tram rail_urban rail rail_electric ship" speed="3.65" length="4.67" shape="1343.38,838.30 1342.12,839.00 1341.23,838.99 1340.70,838.27 1340.54,836.84"/>
    </edge>
    <edge id=":123382692_6" function="internal">
        <lane id=":123382692_6_0" index="0" disallow="tram rail_urban rail rail_electric ship" speed="8.63" length="10.73" shape="1332.39,842.94 1334.77,842.58 1336.92,841.44 1338.84,839.52 1340.54,836.84"/>
    </edge>
    <edge id=":123382692_7" function="internal">