<?xml version='1.0' encoding='UTF-8'?>
<additional xmlns:xsi="http://www.w3.org/2001/XMLSchema-instance" xsi:noNamespaceSchemaLocation="http://sumo.dlr.de/xsd/additional_file.xsd">
  <vType accel="1.0" carFollowModel="IDM" decel="1.5" id="idm" impatience="0.5" laneChangeModel="LC2013" lcCooperative="1.0" lcKeepRight="1.0" lcSpeedGain="1.0" lcStrategic="1.0" maxSpeed="30" minGap="0.0" sigma="0.5" speedDev="0.1" speedFactor="1.0" tau="1.0"/>
</additional>
